**************************************
*      Model Generated by MODPEX     *
*Copyright(c) Symmetry Design Systems*
*         All Rights Reserved        *
*    UNPUBLISHED LICENSED SOFTWARE   *
*   Contains Proprietary Information *
*      Which is The Property of      *
*     SYMMETRY OR ITS LICENSORS      *
*    Modeling services provided by   *
* Interface Technologies www.i-t.com *
**************************************
.MODEL Q2n3055a npn
+IS=7.56605e-11 BF=199.697 NF=1.39955 VAF=49.3238
+IKF=2.66273 ISE=9.23519e-12 NE=3.28532 BR=3.14992
+NR=1.5 VAR=2.14582 IKR=5.49313 ISC=4e-13
+NC=3.9375 RB=6.03501 IRB=0.1 RBM=0.1
+RE=0.000679719 RC=0.172601 XTB=0.1 XTI=1.06192
+EG=1.09076 CJE=5.86993e-10 VJE=0.4 MJE=0.447741
+TF=9.77098e-09 XTF=22.2631 VTF=23624.6 ITF=0.00271772
+CJC=2.52555e-10 VJC=0.95 MJC=0.396387 XCJC=1
+FC=0.8 CJS=0 VJS=0.75 MJS=0.5
+TR=6.83123e-07 PTF=0 KF=0 AF=1
* Model generated on Jan 14, 2004
* Model format: PSpice
