**************************************
*      Model Generated by MODPEX     *
*Copyright(c) Symmetry Design Systems*
*         All Rights Reserved        *
*    UNPUBLISHED LICENSED SOFTWARE   *
*   Contains Proprietary Information *
*      Which is The Property of      *
*     SYMMETRY OR ITS LICENSORS      *
*    Modeling services provided by   *
* Interface Technologies www.i-t.com *
**************************************
.MODEL Q2n3442 npn
+IS=8.24345e-14 BF=76.8946 NF=0.540027 VAF=37.9429
+IKF=8.10615 ISE=3.14668e-10 NE=3.91462 BR=7.68946
+NR=1.5 VAR=41.7445 IKR=3.23325 ISC=6.85581e-14
+NC=2.80079 RB=587.5 IRB=0.145712 RBM=0.1
+RE=0.0001 RC=0.471652 XTB=0.782462 XTI=3.84341
+EG=1.0935 CJE=9.99983e-12 VJE=0.750008 MJE=0.329986
+TF=7.10906e-10 XTF=0.868469 VTF=9.76046 ITF=0.00999806
+CJC=9.99976e-12 VJC=0.750018 MJC=0.329954 XCJC=0.900157
+FC=0.499958 CJS=0 VJS=0.75 MJS=0.5
+TR=1e-07 PTF=0 KF=0 AF=1
* Model generated on Jan 24, 2004
* Model format: PSpice
