**************************************
*      Model Generated by MODPEX     *
*Copyright(c) Symmetry Design Systems*
*         All Rights Reserved        *
*    UNPUBLISHED LICENSED SOFTWARE   *
*   Contains Proprietary Information *
*      Which is The Property of      *
*     SYMMETRY OR ITS LICENSORS      *
*    Modeling services provided by   *
* Interface Technologies www.i-t.com *
**************************************
.MODEL Q2n5195 pnp
+IS=5.55385e-13 BF=199.898 NF=0.92228 VAF=13.8336
+IKF=0.660111 ISE=4.79475e-11 NE=3.99724 BR=15.2129
+NR=0.771125 VAR=40.9115 IKR=6.60111 ISC=7.86534e-13
+NC=1 RB=87.3472 IRB=0.001 RBM=0.1
+RE=0.00568542 RC=0.0284271 XTB=0.794946 XTI=3.68734
+EG=1.0927 CJE=3.25511e-10 VJE=0.745604 MJE=0.454094
+TF=1e-08 XTF=5.11357 VTF=7.55517 ITF=0.00100012
+CJC=4.37917e-10 VJC=0.891921 MJC=0.414166 XCJC=0.802662
+FC=0.8 CJS=0 VJS=0.75 MJS=0.5
+TR=3.75961e-08 PTF=0 KF=0 AF=1
* Model generated on Feb 21, 2004
* Model format: PSpice
