**************************************
*      Model Generated by MODPEX     *
*Copyright(c) Symmetry Design Systems*
*         All Rights Reserved        *
*    UNPUBLISHED LICENSED SOFTWARE   *
*   Contains Proprietary Information *
*      Which is The Property of      *
*     SYMMETRY OR ITS LICENSORS      *
*    Modeling services provided by   *
* Interface Technologies www.i-t.com *
**************************************
.MODEL Q2n5885 npn
+IS=2.13575e-10 BF=117.437 NF=0.85 VAF=21.6171
+IKF=7.94924 ISE=3.96117e-12 NE=3.49211 BR=3.71903
+NR=0.75 VAR=4.77814 IKR=8.65418 ISC=6.51558e-13
+NC=3.95104 RB=2.37631 IRB=0.1 RBM=0.1
+RE=0.000172424 RC=0.0402503 XTB=0.133698 XTI=1.02424
+EG=1.05 CJE=1.78007e-09 VJE=0.4 MJE=0.412306
+TF=9.99549e-09 XTF=3.7801 VTF=7.86246 ITF=0.001
+CJC=1.14032e-09 VJC=0.4 MJC=0.32618 XCJC=0.803024
+FC=0.8 CJS=0 VJS=0.75 MJS=0.5
+TR=3.56405e-07 PTF=0 KF=0 AF=1
* Model generated on Jan 24, 2004
* Model format: PSpice
