**************************************
*      Model Generated by MODPEX     *
*Copyright(c) Symmetry Design Systems*
*         All Rights Reserved        *
*    UNPUBLISHED LICENSED SOFTWARE   *
*   Contains Proprietary Information *
*      Which is The Property of      *
*     SYMMETRY OR ITS LICENSORS      *
*    Modeling services provided by   *
* Interface Technologies www.i-t.com *
**************************************
.MODEL Q2n6109 pnp
+IS=7.96264e-14 BF=10000 NF=0.850009 VAF=182.861
+IKF=0.491398 ISE=1.98933e-13 NE=2.42784 BR=92.6064
+NR=1.5 VAR=0.955253 IKR=0.322071 ISC=4.75e-16
+NC=3.9375 RB=6.60546 IRB=0.1 RBM=0.1
+RE=0.0001 RC=0.342964 XTB=0.1 XTI=2.98893
+EG=1.206 CJE=1.84157e-10 VJE=0.99 MJE=0.347174
+TF=6.6123e-09 XTF=1.49984 VTF=0.999498 ITF=0.999982
+CJC=1.06717e-10 VJC=0.942679 MJC=0.245405 XCJC=0.8
+FC=0.533332 CJS=0 VJS=0.75 MJS=0.5
+TR=2.59313e-10 PTF=0 KF=0 AF=1
* Model generated on Jan 24, 2004
* Model format: PSpice
