**************************************
*      Model Generated by MODPEX     *
*Copyright(c) Symmetry Design Systems*
*         All Rights Reserved        *
*    UNPUBLISHED LICENSED SOFTWARE   *
*   Contains Proprietary Information *
*      Which is The Property of      *
*     SYMMETRY OR ITS LICENSORS      *
*    Modeling services provided by   *
* Interface Technologies www.i-t.com *
**************************************
.MODEL Q2n6111 pnp
+IS=8.48189e-14 BF=10000 NF=0.85 VAF=493.123
+IKF=0.883074 ISE=1.98781e-13 NE=2.428 BR=92.6712
+NR=1.5 VAR=0.931421 IKR=0.322113 ISC=4.75e-16
+NC=3.9375 RB=6.71466 IRB=0.132759 RBM=0.104656
+RE=0.0001 RC=0.302096 XTB=0.1 XTI=2.98781
+EG=1.16249 CJE=1.84143e-10 VJE=0.99 MJE=0.347138
+TF=6.63281e-09 XTF=1.49999 VTF=0.999982 ITF=0.99999
+CJC=1.06709e-10 VJC=0.942986 MJC=0.245406 XCJC=0.8
+FC=0.533333 CJS=0 VJS=0.75 MJS=0.5
+TR=2.59313e-10 PTF=0 KF=0 AF=1
* Model generated on Jan 24, 2004
* Model format: PSpice
