**************************************
*      Model Generated by MODPEX     *
*Copyright(c) Symmetry Design Systems*
*         All Rights Reserved        *
*    UNPUBLISHED LICENSED SOFTWARE   *
*   Contains Proprietary Information *
*      Which is The Property of      *
*     SYMMETRY OR ITS LICENSORS      *
*    Modeling services provided by   *
* Interface Technologies www.i-t.com *
**************************************
.MODEL Q2n6292 npn
+IS=9.3092e-13 BF=2021.8 NF=0.85 VAF=63.2399
+IKF=1 ISE=1.92869e-13 NE=1.97024 BR=40.0703
+NR=1.5 VAR=0.89955 IKR=10 ISC=4.92338e-16
+NC=3.9992 RB=6.98677 IRB=0.1 RBM=0.1
+RE=0.0001 RC=0.326141 XTB=0.1 XTI=2.86739
+EG=1.206 CJE=1.84157e-10 VJE=0.99 MJE=0.347174
+TF=6.73756e-09 XTF=1.49917 VTF=0.997395 ITF=0.998426
+CJC=1.06717e-10 VJC=0.942694 MJC=0.245406 XCJC=0.8
+FC=0.533405 CJS=0 VJS=0.75 MJS=0.5
+TR=6.0671e-08 PTF=0 KF=0 AF=1
* Model generated on Jan 24, 2004
* Model format: PSpice
