**************************************
*      Model Generated by MODPEX     *
*Copyright(c) Symmetry Design Systems*
*         All Rights Reserved        *
*    UNPUBLISHED LICENSED SOFTWARE   *
*   Contains Proprietary Information *
*      Which is The Property of      *
*     SYMMETRY OR ITS LICENSORS      *
*    Modeling services provided by   *
* Interface Technologies www.i-t.com *
**************************************
.MODEL Q2n6338 npn
+IS=1e-09 BF=95.5778 NF=0.85 VAF=23.5439
+IKF=10.0491 ISE=7.75037e-12 NE=3.34367 BR=2.9033
+NR=0.749999 VAR=7.67876 IKR=5.30455 ISC=5.5e-13
+NC=3.875 RB=5.78713 IRB=0.111453 RBM=0.1
+RE=0.000328839 RC=0.0510123 XTB=0.103896 XTI=1
+EG=1.10835 CJE=3.57297e-09 VJE=0.657487 MJE=0.483183
+TF=1.47241e-09 XTF=1.22996 VTF=11.447 ITF=0.010002
+CJC=5e-10 VJC=0.95 MJC=0.383411 XCJC=0.799998
+FC=0.560833 CJS=0 VJS=0.75 MJS=0.5
+TR=5.55774e-07 PTF=0 KF=0 AF=1
* Model generated on Jan 24, 2004
* Model format: PSpice
