**************************************
*      Model Generated by MODPEX     *
*Copyright(c) Symmetry Design Systems*
*         All Rights Reserved        *
*    UNPUBLISHED LICENSED SOFTWARE   *
*   Contains Proprietary Information *
*      Which is The Property of      *
*     SYMMETRY OR ITS LICENSORS      *
*    Modeling services provided by   *
* Interface Technologies www.i-t.com *
**************************************
.MODEL Q2n6490 pnp
+IS=1.24979e-10 BF=331.315 NF=0.901542 VAF=29.028
+IKF=3.84802 ISE=9.24938e-12 NE=3.28137 BR=4.18756
+NR=0.978802 VAR=1.08038 IKR=8.24899 ISC=2.5e-13
+NC=4 RB=5.02823 IRB=0.1 RBM=0.1
+RE=0.000378787 RC=0.0961195 XTB=0.119729 XTI=1.05992
+EG=1.05 CJE=6.09453e-10 VJE=0.99 MJE=0.56908
+TF=4e-10 XTF=1.5 VTF=1 ITF=1
+CJC=7.17766e-10 VJC=0.95 MJC=0.409556 XCJC=0.8
+FC=0.533333 CJS=0 VJS=0.75 MJS=0.5
+TR=4.19686e-07 PTF=0 KF=0 AF=1
* Model generated on Feb 21, 2004
* Model format: PSpice
