**************************************
*      Model Generated by MODPEX     *
*Copyright(c) Symmetry Design Systems*
*         All Rights Reserved        *
*    UNPUBLISHED LICENSED SOFTWARE   *
*   Contains Proprietary Information *
*      Which is The Property of      *
*     SYMMETRY OR ITS LICENSORS      *
*    Modeling services provided by   *
* Interface Technologies www.i-t.com *
**************************************
.MODEL Q2n6497 npn
+IS=7.94307e-11 BF=33.2517 NF=0.918837 VAF=23.6006
+IKF=7.00246 ISE=5.5e-12 NE=3.4375 BR=3.32517
+NR=0.900114 VAR=2.16216 IKR=4.91438 ISC=2.5e-13
+NC=4 RB=9.57726 IRB=0.0102366 RBM=0.1
+RE=0.000572557 RC=0.071938 XTB=0.136453 XTI=1.03115
+EG=1.10619 CJE=8.17665e-10 VJE=0.529547 MJE=0.384851
+TF=1e-08 XTF=2.01482 VTF=5.21468 ITF=0.001
+CJC=1.99732e-10 VJC=0.420798 MJC=0.366767 XCJC=0.797511
+FC=0.8 CJS=0 VJS=0.75 MJS=0.5
+TR=2.55937e-06 PTF=0 KF=0 AF=1
* Model generated on Feb 22, 2004
* Model format: PSpice
