**************************************
*      Model Generated by MODPEX     *
*Copyright(c) Symmetry Design Systems*
*         All Rights Reserved        *
*    UNPUBLISHED LICENSED SOFTWARE   *
*   Contains Proprietary Information *
*      Which is The Property of      *
*     SYMMETRY OR ITS LICENSORS      *
*Commercial Use or Resale Restricted *
*   by Symmetry License Agreement    *
**************************************
* Model generated on Nov  6, 03
* MODEL FORMAT: PSpice
.MODEL Q2n6609 pnp
+IS=8.97366e-11 BF=153.874 NF=1.29572 VAF=27.5393
+IKF=5.54461 ISE=7.75047e-12 NE=3.34356 BR=3.573
+NR=1.41276 VAR=2.67072 IKR=7.74392 ISC=4.75e-13
+NC=3.96875 RB=2.45357 IRB=0.100056 RBM=0.25225
+RE=0.000604503 RC=0.0795809 XTB=0.1 XTI=1.09973
+EG=1.206 CJE=1e-11 VJE=0.75 MJE=0.33
+TF=1e-09 XTF=1 VTF=10 ITF=0.01
+CJC=1e-11 VJC=0.75 MJC=0.33 XCJC=0.9
+FC=0.5 CJS=0 VJS=0.75 MJS=0.5
+TR=1e-07 PTF=0 KF=0 AF=1


