**************************************
*      Model Generated by MODPEX     *
*Copyright(c) Symmetry Design Systems*
*         All Rights Reserved        *
*    UNPUBLISHED LICENSED SOFTWARE   *
*   Contains Proprietary Information *
*      Which is The Property of      *
*     SYMMETRY OR ITS LICENSORS      *
*Commercial Use or Resale Restricted *
*   by Symmetry License Agreement    *
**************************************
* Model generated on Sep 26, 02
* MODEL FORMAT: PSpice
.MODEL Q2sc4617 npn
+IS=3.13232e-14 BF=639.699 NF=1.07392 VAF=28.7201
+IKF=0.281754 ISE=1.58402e-15 NE=1.2252 BR=0.423065
+NR=1.233 VAR=287.201 IKR=2.81754 ISC=1.58402e-15
+NC=2.78573 RB=9.92243 IRB=0.199224 RBM=9.92243
+RE=0.0001 RC=0.921902 XTB=9.99997e-10 XTI=1
+EG=1.05 CJE=1.97069e-11 VJE=0.703109 MJE=0.325526
+TF=3.977e-10 XTF=1 VTF=10 ITF=0.01
+CJC=6.33521e-12 VJC=0.635479 MJC=0.301066 XCJC=0.9
+FC=0.471441 TR=1e-07 PTF=0 KF=0
+AF=1 RCO=8.557 VO=1.78597 GAMMA=2.88881e-09
+QCO=1e-10

