**************************************
*      Model Generated by MODPEX     *
*Copyright(c) Symmetry Design Systems*
*         All Rights Reserved        *
*    UNPUBLISHED LICENSED SOFTWARE   *
*   Contains Proprietary Information *
*      Which is The Property of      *
*     SYMMETRY OR ITS LICENSORS      *
*    Modeling services provided by   *
* Interface Technologies www.i-t.com *
**************************************
.MODEL Qbd179 npn
+IS=2.17735e-10 BF=87.3643 NF=1.21238 VAF=10
+IKF=5.92007 ISE=8.67187e-12 NE=3.34988 BR=3.54279
+NR=1.26704 VAR=1.60537 IKR=8.04318 ISC=2.88133e-13
+NC=3.98064 RB=15.3279 IRB=0.1 RBM=0.1
+RE=0.000912821 RC=0.254026 XTB=0.1 XTI=1
+EG=1.05012 CJE=5.51549e-08 VJE=0.591953 MJE=0.457535
+TF=1e-08 XTF=1.35722 VTF=0.995733 ITF=0.999983
+CJC=4.44061e-10 VJC=0.400133 MJC=0.410398 XCJC=0.803125
+FC=0.585759 CJS=0 VJS=0.75 MJS=0.5
+TR=1e-07 PTF=0 KF=0 AF=1
* Model generated on Feb 14, 2004
* Model format: PSpice
