**************************************
*      Model Generated by MODPEX     *
*Copyright(c) Symmetry Design Systems*
*         All Rights Reserved        *
*    UNPUBLISHED LICENSED SOFTWARE   *
*   Contains Proprietary Information *
*      Which is The Property of      *
*     SYMMETRY OR ITS LICENSORS      *
*    Modeling services provided by   *
* Interface Technologies www.i-t.com *
**************************************
.MODEL Qbd180 pnp
+IS=1.54382e-10 BF=133.079 NF=1.177 VAF=46.3848
+IKF=0.866463 ISE=8.61588e-12 NE=3.32575 BR=3.77404
+NR=1.23009 VAR=2.96403 IKR=4.72424 ISC=2.88134e-13
+NC=3.98064 RB=14.5966 IRB=0.1 RBM=0.1
+RE=0.0153802 RC=0.210939 XTB=0.1 XTI=1.0095
+EG=1.05 CJE=5.02381e-08 VJE=0.605782 MJE=0.433555
+TF=1e-08 XTF=1.35722 VTF=0.995801 ITF=0.999972
+CJC=4.43982e-10 VJC=0.400099 MJC=0.410509 XCJC=0.803125
+FC=0.574605 CJS=0 VJS=0.75 MJS=0.5
+TR=1e-07 PTF=0 KF=0 AF=1
* Model generated on Feb 14, 2004
* Model format: PSpice
