**************************************
*      Model Generated by MODPEX     *
*Copyright(c) Symmetry Design Systems*
*         All Rights Reserved        *
*    UNPUBLISHED LICENSED SOFTWARE   *
*   Contains Proprietary Information *
*      Which is The Property of      *
*     SYMMETRY OR ITS LICENSORS      *
*    Modeling services provided by   *
* Interface Technologies www.i-t.com *
**************************************
.MODEL Qbd237 npn
+IS=3.39253e-12 BF=108.002 NF=0.85 VAF=54.0829
+IKF=1.0435 ISE=6.43245e-12 NE=3.3968 BR=4.46493
+NR=0.843007 VAR=4.13248 IKR=3.42156 ISC=3.89999e-13
+NC=3.99 RB=8.81471 IRB=0.1 RBM=0.1
+RE=0.00101545 RC=0.282939 XTB=0.1 XTI=1
+EG=1.206 CJE=6.77107e-08 VJE=0.559947 MJE=0.503582
+TF=1e-08 XTF=1.35725 VTF=0.996034 ITF=0.999921
+CJC=4.44295e-10 VJC=0.400232 MJC=0.41007 XCJC=0.803125
+FC=0.598714 CJS=0 VJS=0.75 MJS=0.5
+TR=1e-07 PTF=0 KF=0 AF=1
* Model generated on Feb 22, 2004
* Model format: PSpice
