**************************************
*      Model Generated by MODPEX     *
*Copyright(c) Symmetry Design Systems*
*         All Rights Reserved        *
*    UNPUBLISHED LICENSED SOFTWARE   *
*   Contains Proprietary Information *
*      Which is The Property of      *
*     SYMMETRY OR ITS LICENSORS      *
*    Modeling services provided by   *
* Interface Technologies www.i-t.com *
**************************************
.MODEL Qbd437 npn
+IS=3.26539e-14 BF=162.483 NF=0.912424 VAF=10
+IKF=10 ISE=7.08133e-13 NE=3.85752 BR=3.14245
+NR=0.75 VAR=27.661 IKR=3.09536 ISC=2.67238e-16
+NC=1.11938 RB=20.4443 IRB=0.1 RBM=0.208914
+RE=0.0001 RC=0.001 XTB=2.24115 XTI=3.99739
+EG=1.05 CJE=6.55858e-09 VJE=0.547017 MJE=0.550043
+TF=1e-08 XTF=1.74258 VTF=1.0222 ITF=0.611294
+CJC=3.16048e-10 VJC=0.600226 MJC=0.409625 XCJC=0.799467
+FC=0.653699 CJS=0 VJS=0.75 MJS=0.5
+TR=1e-07 PTF=0 KF=0 AF=1
* Model generated on Feb 22, 2004
* Model format: PSpice
