**************************************
*      Model Generated by MODPEX     *
*Copyright(c) Symmetry Design Systems*
*         All Rights Reserved        *
*    UNPUBLISHED LICENSED SOFTWARE   *
*   Contains Proprietary Information *
*      Which is The Property of      *
*     SYMMETRY OR ITS LICENSORS      *
*    Modeling services provided by   *
* Interface Technologies www.i-t.com *
**************************************
.MODEL Qbd809 npn
+IS=1.50917e-11 BF=223.956 NF=0.85 VAF=41.1857
+IKF=2.61165 ISE=9.24949e-12 NE=3.28133 BR=2.91587
+NR=0.916778 VAR=1.40779 IKR=8.45562 ISC=5.5e-13
+NC=3.9375 RB=7.37463 IRB=0.1 RBM=0.1
+RE=0.00062004 RC=0.105661 XTB=0.1 XTI=1.06794
+EG=1.206 CJE=1e-07 VJE=0.400001 MJE=0.782249
+TF=1e-08 XTF=1.35796 VTF=1.00234 ITF=0.999585
+CJC=5e-10 VJC=0.40024 MJC=0.410045 XCJC=0.803124
+FC=0.779145 CJS=0 VJS=0.75 MJS=0.5
+TR=1e-07 PTF=0 KF=0 AF=1
* Model generated on Jan 31, 2004
* Model format: PSpice
