**************************************
*      Model Generated by MODPEX     *
*Copyright(c) Symmetry Design Systems*
*         All Rights Reserved        *
*    UNPUBLISHED LICENSED SOFTWARE   *
*   Contains Proprietary Information *
*      Which is The Property of      *
*     SYMMETRY OR ITS LICENSORS      *
*    Modeling services provided by   *
* Interface Technologies www.i-t.com *
**************************************
.MODEL Qbdv64b pnp
+IS=7.69122e-10 BF=5267.2 NF=0.974803 VAF=84.6565
+IKF=10 ISE=1e-08 NE=1.70593 BR=0.1
+NR=0.75 VAR=290.509 IKR=0.88705 ISC=8.46316e-09
+NC=2.93664 RB=160.92 IRB=0.129726 RBM=0.116671
+RE=0.000554682 RC=0.238475 XTB=1.32323 XTI=1.03323
+EG=1.206 CJE=1e-11 VJE=0.75 MJE=0.33
+TF=1e-09 XTF=1 VTF=10 ITF=0.01
+CJC=1e-11 VJC=0.75 MJC=0.33 XCJC=0.9
+FC=0.5 CJS=0 VJS=0.75 MJS=0.5
+TR=1e-07 PTF=0 KF=0 AF=1
* Model generated on Jan 31, 2004
* Model format: PSpice
