**************************************
*      Model Generated by MODPEX     *
*Copyright(c) Symmetry Design Systems*
*         All Rights Reserved        *
*    UNPUBLISHED LICENSED SOFTWARE   *
*   Contains Proprietary Information *
*      Which is The Property of      *
*     SYMMETRY OR ITS LICENSORS      *
*Commercial Use or Resale Restricted *
*   by Symmetry License Agreement    *
**************************************
* Model generated on Aug 12, 03
* MODEL FORMAT: PSpice
.MODEL Jbfr31lt1 njf
+VTO=-1.186 BETA=0.000706004 LAMBDA=0.00436638 RD=1340.34
+RS=5.52652e-09 IS=6.66802e-11 CGS=9.99833e-16 CGD=1.636e-12
+PB=2.52879 FC=0.5 KF=2.88163e-18 AF=0.1


