**************************************
*      Model Generated by MODPEX     *
*Copyright(c) Symmetry Design Systems*
*         All Rights Reserved        *
*    UNPUBLISHED LICENSED SOFTWARE   *
*   Contains Proprietary Information *
*      Which is The Property of      *
*     SYMMETRY OR ITS LICENSORS      *
*    Modeling services provided by   *
* Interface Technologies www.i-t.com *
**************************************
.MODEL Qbud42d-001 npn
+IS=3.49298e-11 BF=19.6305 NF=1.46166 VAF=10
+IKF=5.00366 ISE=7.75392e-12 NE=2.22512 BR=1.96305
+NR=1.5 VAR=5.28726 IKR=4.5355 ISC=4.75001e-13
+NC=2.85087 RB=0.1 IRB=0.1 RBM=0.1
+RE=0.000627834 RC=0.0742659 XTB=0.1 XTI=1
+EG=1.05 CJE=5.49988e-10 VJE=0.99 MJE=0.365972
+TF=4e-10 XTF=1.5 VTF=1 ITF=1
+CJC=1.01534e-10 VJC=0.95 MJC=0.394566 XCJC=0.8
+FC=0.533333 CJS=0 VJS=0.75 MJS=0.5
+TR=9.57121e-06 PTF=0 KF=0 AF=1
* Model generated on Dec 24, 2003
* Model format: PSpice
