**************************************
*      Model Generated by MODPEX     *
*Copyright(c) Symmetry Design Systems*
*         All Rights Reserved        *
*    UNPUBLISHED LICENSED SOFTWARE   *
*   Contains Proprietary Information *
*      Which is The Property of      *
*     SYMMETRY OR ITS LICENSORS      *
*Commercial Use or Resale Restricted *
*   by Symmetry License Agreement    *
**************************************
* Model generated on Aug 28, 03
* MODEL FORMAT: PSpice
.MODEL Qbuh51 npn
+IS=8.2033e-14 BF=27.6353 NF=1.09087 VAF=16.1566
+IKF=0.71169 ISE=4.21828e-10 NE=2.21088 BR=2.75344
+NR=1.00898 VAR=8.8695 IKR=7.1169 ISC=3.30782e-13
+NC=3.99595 RB=0.163993 IRB=0.100022 RBM=0.103633
+RE=0.0001 RC=0.212475 XTB=0.1 XTI=1
+EG=1.05 CJE=4.80929e-10 VJE=0.4 MJE=0.287337
+TF=3.12567e-09 XTF=1.49976 VTF=0.997755 ITF=1.00019
+CJC=7.1334e-11 VJC=0.95 MJC=0.430733 XCJC=0.8
+FC=0.531872 CJS=0 VJS=0.75 MJS=0.5
+TR=7.6985e-06 PTF=0 KF=0 AF=1


