**************************************
*      Model Generated by MODPEX     *
*Copyright(c) Symmetry Design Systems*
*         All Rights Reserved        *
*    UNPUBLISHED LICENSED SOFTWARE   *
*   Contains Proprietary Information *
*      Which is The Property of      *
*     SYMMETRY OR ITS LICENSORS      *
*    Modeling services provided by   *
* Interface Technologies www.i-t.com *
**************************************
.MODEL Qbuh50 npn
+IS=1.88958e-10 BF=15.3268 NF=1.09765 VAF=31.3168
+IKF=6.4954 ISE=6.36719e-12 NE=3.40135 BR=1.53268
+NR=1.07725 VAR=4.9346 IKR=3.65106 ISC=3.17781e-13
+NC=3.99744 RB=2.07475 IRB=0.1 RBM=0.1
+RE=0.000593266 RC=0.197659 XTB=0.130708 XTI=1.00013
+EG=1.10149 CJE=1.84292e-09 VJE=0.99 MJE=0.374054
+TF=1e-08 XTF=2.35448 VTF=4.35207 ITF=0.001
+CJC=1.46349e-10 VJC=0.95 MJC=0.482826 XCJC=0.1
+FC=0.8 CJS=0 VJS=0.75 MJS=0.5
+TR=1.2293e-07 PTF=0 KF=0 AF=1
* Model generated on Jan 25, 2004
* Model format: PSpice
