**************************************
*      Model Generated by MODPEX     *
*Copyright(c) Symmetry Design Systems*
*         All Rights Reserved        *
*    UNPUBLISHED LICENSED SOFTWARE   *
*   Contains Proprietary Information *
*      Which is The Property of      *
*     SYMMETRY OR ITS LICENSORS      *
*    Modeling services provided by   *
* Interface Technologies www.i-t.com *
**************************************
.MODEL Qbul146 npn
+IS=7.20092e-10 BF=19.7338 NF=0.862637 VAF=19.8699
+IKF=6.54333 ISE=6.38545e-12 NE=3.38829 BR=1.97338
+NR=0.872882 VAR=4.5847 IKR=8.68106 ISC=7.74768e-13
+NC=3.89256 RB=4.64526 IRB=0.0252041 RBM=0.084664
+RE=0.000394439 RC=0.0714783 XTB=0.136944 XTI=0.100022
+EG=1.07928 CJE=2.95879e-09 VJE=0.647588 MJE=0.314604
+TF=4e-10 XTF=1.5 VTF=1 ITF=1
+CJC=2.56269e-10 VJC=0.95 MJC=0.486303 XCJC=0.8
+FC=0.533333 CJS=0 VJS=0.75 MJS=0.5
+TR=1.23133e-07 PTF=0 KF=0 AF=1
* Model generated on Dec 25, 2003
* Model format: PSpice
