**************************************
*      Model Generated by MODPEX     *
*Copyright(c) Symmetry Design Systems*
*         All Rights Reserved        *
*    UNPUBLISHED LICENSED SOFTWARE   *
*   Contains Proprietary Information *
*      Which is The Property of      *
*     SYMMETRY OR ITS LICENSORS      *
*    Modeling services provided by   *
* Interface Technologies www.i-t.com *
**************************************
.MODEL Qbuv26 npn
+IS=4.48609e-11 BF=167.733 NF=0.85 VAF=30.509
+IKF=10 ISE=7.75e-12 NE=3.34375 BR=3.14976
+NR=1.56482 VAR=10.5796 IKR=12 ISC=5.5e-13
+NC=3.9375 RB=5.80141 IRB=0.1 RBM=0.1
+RE=0.000287743 RC=0.152052 XTB=0.13687 XTI=1.03293
+EG=1.17533 CJE=4.12187e-10 VJE=0.651979 MJE=0.352708
+TF=3.95e-10 XTF=1.35721 VTF=0.995664 ITF=1
+CJC=1.55755e-10 VJC=0.4 MJC=0.436188 XCJC=0.803125
+FC=0.533333 CJS=0 VJS=0.75 MJS=0.5
+TR=4.57474e-07 PTF=0 KF=0 AF=1
* Model generated on Mar  1, 2004
* Model format: PSpice
