**************************************
*      Model Generated by MODPEX     *
*Copyright(c) Symmetry Design Systems*
*         All Rights Reserved        *
*    UNPUBLISHED LICENSED SOFTWARE   *
*   Contains Proprietary Information *
*      Which is The Property of      *
*     SYMMETRY OR ITS LICENSORS      *
*    Modeling services provided by   *
* Interface Technologies www.i-t.com *
**************************************
.MODEL Qbuv21 npn
+IS=1e-17 BF=37.9741 NF=0.85 VAF=10
+IKF=29.5895 ISE=6.40203e-12 NE=3.3997 BR=3.17873
+NR=0.844599 VAR=5.72564 IKR=0.452518 ISC=3.9e-13
+NC=3.99 RB=5.41069 IRB=0.1 RBM=0.1
+RE=0.00189214 RC=0.0094607 XTB=0.1 XTI=1
+EG=1.05 CJE=3.03693e-09 VJE=0.64895 MJE=0.352007
+TF=9.87495e-09 XTF=1.5 VTF=1.00005 ITF=0.999996
+CJC=3.00048e-10 VJC=0.600009 MJC=0.409954 XCJC=0.8
+FC=0.534513 CJS=0 VJS=0.75 MJS=0.5
+TR=1.99694e-06 PTF=0 KF=0 AF=1
* Model generated on Feb 14, 2004
* Model format: PSpice
