**************************************
*      Model Generated by MODPEX     *
*Copyright(c) Symmetry Design Systems*
*         All Rights Reserved        *
*    UNPUBLISHED LICENSED SOFTWARE   *
*   Contains Proprietary Information *
*      Which is The Property of      *
*     SYMMETRY OR ITS LICENSORS      *
*    Modeling services provided by   *
* Interface Technologies www.i-t.com *
**************************************
.MODEL Qd44c12 npn
+IS=8.62803e-11 BF=87.6329 NF=0.85 VAF=24.6162
+IKF=6.02023 ISE=5.49995e-12 NE=3.4375 BR=3.76796
+NR=0.88017 VAR=6.26393 IKR=4.4605 ISC=4.75e-13
+NC=3.96875 RB=6.64779 IRB=0.1 RBM=0.1
+RE=0.000645056 RC=0.0959557 XTB=0.102535 XTI=1
+EG=1.10543 CJE=9.93853e-10 VJE=0.654179 MJE=0.343931
+TF=6.23703e-09 XTF=1.5 VTF=0.999992 ITF=1.00001
+CJC=3.25741e-10 VJC=0.616506 MJC=0.336371 XCJC=0.8
+FC=0.531917 CJS=0 VJS=0.75 MJS=0.5
+TR=1.40615e-07 PTF=0 KF=0 AF=1
* Model generated on Mar  1, 2004
* Model format: PSpice
