**************************************
*      Model Generated by MODPEX     *
*Copyright(c) Symmetry Design Systems*
*         All Rights Reserved        *
*    UNPUBLISHED LICENSED SOFTWARE   *
*   Contains Proprietary Information *
*      Which is The Property of      *
*     SYMMETRY OR ITS LICENSORS      *
*    Modeling services provided by   *
* Interface Technologies www.i-t.com *
**************************************
.MODEL Qd44vh10 npn
+IS=4.53661e-11 BF=83.9638 NF=0.85 VAF=31.568
+IKF=9.92986 ISE=5.25921e-12 NE=3.44907 BR=6.29465
+NR=1.29718 VAR=8.99475 IKR=7.12846 ISC=1.37406e-13
+NC=3.9992 RB=7.54185 IRB=0.1 RBM=0.1
+RE=0.00041815 RC=0.0774661 XTB=0.102716 XTI=1.11826
+EG=1.11385 CJE=9.60619e-10 VJE=0.649572 MJE=0.350659
+TF=2.84126e-09 XTF=1.5 VTF=1 ITF=1
+CJC=3.16396e-10 VJC=0.615633 MJC=0.340325 XCJC=0.8
+FC=0.533544 CJS=0 VJS=0.75 MJS=0.5
+TR=1.83249e-07 PTF=0 KF=0 AF=1
* Model generated on Feb  1, 2004
* Model format: PSpice
