**************************************
*      Model Generated by MODPEX     *
*Copyright(c) Symmetry Design Systems*
*         All Rights Reserved        *
*    UNPUBLISHED LICENSED SOFTWARE   *
*   Contains Proprietary Information *
*      Which is The Property of      *
*     SYMMETRY OR ITS LICENSORS      *
*    Modeling services provided by   *
* Interface Technologies www.i-t.com *
**************************************
.MODEL Qd45c12 pnp
+IS=7.77326e-11 BF=100.32 NF=0.85 VAF=21.9253
+IKF=3.06575 ISE=5.49926e-12 NE=3.43756 BR=3.75979
+NR=1.05007 VAR=5.84358 IKR=4.41221 ISC=4.75e-13
+NC=3.96875 RB=6.18162 IRB=0.1 RBM=0.1
+RE=0.000654105 RC=0.185814 XTB=0.102022 XTI=1
+EG=1.12493 CJE=9.93697e-10 VJE=0.654296 MJE=0.343741
+TF=6.22912e-09 XTF=1.5 VTF=0.999992 ITF=1.00001
+CJC=3.25745e-10 VJC=0.616501 MJC=0.336374 XCJC=0.8
+FC=0.531844 CJS=0 VJS=0.75 MJS=0.5
+TR=1.35087e-07 PTF=0 KF=0 AF=1
* Model generated on Mar  1, 2004
* Model format: PSpice
