**************************************
*      Model Generated by MODPEX     *
*Copyright(c) Symmetry Design Systems*
*         All Rights Reserved        *
*    UNPUBLISHED LICENSED SOFTWARE   *
*   Contains Proprietary Information *
*      Which is The Property of      *
*     SYMMETRY OR ITS LICENSORS      *
*Commercial Use or Resale Restricted *
*   by Symmetry License Agreement    *
**************************************
* Model generated on Jan  9, 04
* MODEL FORMAT: PSpice
.MODEL Dmbr130lsft1 d
+IS=2.89772e-05 RS=0.0372294 N=1.15369 EG=0.615959
+XTI=1.19747 BV=1000 IBV=0.0001 CJO=2.92625e-10
+VJ=0.4 M=0.48759 FC=0.5 TT=0
+KF=0 AF=1


