**************************************
*      Model Generated by MODPEX     *
*Copyright(c) Symmetry Design Systems*
*         All Rights Reserved        *
*    UNPUBLISHED LICENSED SOFTWARE   *
*   Contains Proprietary Information *
*      Which is The Property of      *
*     SYMMETRY OR ITS LICENSORS      *
*    Modeling services provided by   *
* Interface Technologies www.i-t.com *
**************************************
.MODEL Dmbr16100ct d
+IS=2.53795e-05 RS=0.01 N=1.78465 EG=0.732675
+XTI=4 VB=100 IBV=0.0001 CJO=1.68216e-09
+VJ=0.411786 M=0.520374 FC=0.5 TT=0
+KF=0 AF=1
* Model generated on August 31, 2003
* Model format: PSpice
