**************************************
*      Model Generated by MODPEX     *
*Copyright(c) Symmetry Design Systems*
*         All Rights Reserved        *
*    UNPUBLISHED LICENSED SOFTWARE   *
*   Contains Proprietary Information *
*      Which is The Property of      *
*     SYMMETRY OR ITS LICENSORS      *
*Commercial Use or Resale Restricted *
*   by Symmetry License Agreement    *
**************************************
* Model generated on Dec 14, 01
* MODEL FORMAT: PSpice
.MODEL Dmbr3060 d
+IS=4.94995e-05 RS=0.028924 N=1.67564 EG=0.639625
+XTI=3.6517 BV=1000 IBV=0.0001 CJO=3.98975e-10
+VJ=0.4 M=0.425495 FC=0.5 TT=0
+KF=0 AF=1

