**************************************
*      Model Generated by MODPEX     *
*Copyright(c) Symmetry Design Systems*
*         All Rights Reserved        *
*    UNPUBLISHED LICENSED SOFTWARE   *
*   Contains Proprietary Information *
*      Which is The Property of      *
*     SYMMETRY OR ITS LICENSORS      *
*    Modeling services provided by   *
* Interface Technologies www.i-t.com *
**************************************
.MODEL Dmbr4045wt d
+IS=8.4884e-05 RS=0.00613982 N=1.32158 EG=0.395811
+XTI=5 BV=45 IBV=0.001 CJO=3.41069e-09
+VJ=0.4 M=0.445153 FC=0.5 TT=0
+KF=0 AF=1
* Model generated on November 25, 2003
* Model format: PSpice
