**************************************
*      Model Generated by MODPEX     *
*Copyright(c) Symmetry Design Systems*
*         All Rights Reserved        *
*    UNPUBLISHED LICENSED SOFTWARE   *
*   Contains Proprietary Information *
*      Which is The Property of      *
*     SYMMETRY OR ITS LICENSORS      *
*Commercial Use or Resale Restricted *
*   by Symmetry License Agreement    *
**************************************
* Model generated on Feb  8, 01
* MODEL FORMAT: PSpice
.MODEL Dmbr4015ctl d
+IS=6.82483e-05 RS=0.00486467 N=0.992357 EG=0.6
+XTI=1.91691 BV=15 IBV=0.0001 CJO=6.98676e-09
+VJ=0.423373 M=0.574692 FC=0.5 TT=1e-09
+KF=0 AF=1
