**************************************
*      Model Generated by MODPEX     *
*Copyright(c) Symmetry Design Systems*
*         All Rights Reserved        *
*    UNPUBLISHED LICENSED SOFTWARE   *
*   Contains Proprietary Information *
*      Which is The Property of      *
*     SYMMETRY OR ITS LICENSORS      *
*    Modeling services provided by   *
* Interface Technologies www.i-t.com *
**************************************
.MODEL Dmbra120lt3 d
+IS=7.13608e-06 RS=0.0526634 N=1.02329 EG=0.641465
+XTI=0.575581 BV=20 IBV=0.002 CJO=3.13351e-10
+VJ=0.4 M=0.504352 FC=0.5 TT=0
+KF=0 AF=1
* Model generated on Dec 17, 2003
* Model format: PSpice
