**************************************
*      Model Generated by MODPEX     *
*Copyright(c) Symmetry Design Systems*
*         All Rights Reserved        *
*    UNPUBLISHED LICENSED SOFTWARE   *
*   Contains Proprietary Information *
*      Which is The Property of      *
*     SYMMETRY OR ITS LICENSORS      *
*Commercial Use or Resale Restricted *
*   by Symmetry License Agreement    *
**************************************
* Model generated on Feb  4, 00
* MODEL FORMAT: PSpice
.MODEL Dmbrm130lt3 d
+IS=4.21804e-06 RS=0.0374735 N=0.99941 EG=1.3
+XTI=3.03445 BV=30 IBV=0.00041 CJO=2.96984e-10
+VJ=0.4 M=0.485402 FC=0.5 TT=2.59685e-09
+KF=0 AF=1
