**************************************
*      Model Generated by MODPEX     *
*Copyright(c) Symmetry Design Systems*
*         All Rights Reserved        *
*    UNPUBLISHED LICENSED SOFTWARE   *
*   Contains Proprietary Information *
*      Which is The Property of      *
*     SYMMETRY OR ITS LICENSORS      *
*    Modeling services provided by   *
* Interface Technologies www.i-t.com *
**************************************
.MODEL Dmbrd340t4 d
+IS=1.53831e-09 RS=0.0388714 N=0.647188 EG=0.633686
+XTI=0.5 BV=40 IBV=0.0002 CJO=7.66349e-10
+VJ=0.4 M=0.428931 FC=0.5 TT=0
+KF=0 AF=1
* Model generated on August 31, 2003
* Model format: PSpice
