**************************************
*      Model Generated by MODPEX     *
*Copyright(c) Symmetry Design Systems*
*         All Rights Reserved        *
*    UNPUBLISHED LICENSED SOFTWARE   *
*   Contains Proprietary Information *
*      Which is The Property of      *
*     SYMMETRY OR ITS LICENSORS      *
*    Modeling services provided by   *
* Interface Technologies www.i-t.com *
**************************************
.MODEL Dmbrd1035ctl d
+IS=1.11467e-05 RS=0.0141972 N=1.07947 EG=0.6
+XTI=2.71918 BV=35 IBV=0.002 CJO=9.28426e-10
+VJ=0.4 M=0.407055 FC=0.5 TT=0
+KF=0 AF=1
* Model generated on August 31, 2003
* Model format: PSpice
