**************************************
*      Model Generated by MODPEX     *
*Copyright(c) Symmetry Design Systems*
*         All Rights Reserved        *
*    UNPUBLISHED LICENSED SOFTWARE   *
*   Contains Proprietary Information *
*      Which is The Property of      *
*     SYMMETRY OR ITS LICENSORS      *
*Commercial Use or Resale Restricted *
*   by Symmetry License Agreement    *
**************************************
* Model generated on Mar 16, 00
* MODEL FORMAT: PSpice
.MODEL Dmbrm120et3 d
+IS=9.01897e-08 RS=0.0132514 N=1.14729 EG=0.6
+XTI=0.5 BV=20 IBV=0.00025 CJO=3.7893e-10
+VJ=0.4 M=0.444172 FC=0.5 TT=1e-09
+KF=0 AF=1
