**************************************
*      Model Generated by MODPEX     *
*Copyright(c) Symmetry Design Systems*
*         All Rights Reserved        *
*    UNPUBLISHED LICENSED SOFTWARE   *
*   Contains Proprietary Information *
*      Which is The Property of      *
*     SYMMETRY OR ITS LICENSORS      *
*Commercial Use or Resale Restricted *
*   by Symmetry License Agreement    *
**************************************
* Model generated on Mar 14, 00
* MODEL FORMAT: PSpice
.MODEL Dmbrm120et3 d
+IS=4.71657e-11 RS=14.9465 N=1.09254 EG=0.6
+XTI=0.5 BV=1000 IBV=0.0001 CJO=3.78927e-10
+VJ=0.4 M=0.444175 FC=0.5 TT=1e-09
+KF=0 AF=1
