**************************************
*      Model Generated by MODPEX     *
*Copyright(c) Symmetry Design Systems*
*         All Rights Reserved        *
*    UNPUBLISHED LICENSED SOFTWARE   *
*   Contains Proprietary Information *
*      Which is The Property of      *
*     SYMMETRY OR ITS LICENSORS      *
*    Modeling services provided by   *
* Interface Technologies www.i-t.com *
**************************************
.MODEL Dmbrm110et1 d
+IS=3.7631e-08 RS=0.0176193 N=1.07109 EG=0.698491
+XTI=4 BV=10 IBV=1e-06 CJO=3.52484e-10
+VJ=0.48302 M=0.44564 FC=0.5 TT=0
+KF=0 AF=1
* Model generated on November 25, 2003
* Model format: PSpice
