**************************************
*      Model Generated by MODPEX     *
*Copyright(c) Symmetry Design Systems*
*         All Rights Reserved        *
*    UNPUBLISHED LICENSED SOFTWARE   *
*   Contains Proprietary Information *
*      Which is The Property of      *
*     SYMMETRY OR ITS LICENSORS      *
*Commercial Use or Resale Restricted *
*   by Symmetry License Agreement    *
**************************************
* Model generated on Mar 29, 00
* MODEL FORMAT: PSpice
.MODEL Dmbrp40030ctlb2 d
+IS=0.000103936 RS=0.000261173 N=1.00371 EG=0.602609
+XTI=0.500067 BV=1000 IBV=0.0001 CJO=8.08238e-08
+VJ=0.4 M=0.66283 FC=0.5 TT=1e-09
+KF=0 AF=1
