**************************************
*      Model Generated by MODPEX     *
*Copyright(c) Symmetry Design Systems*
*         All Rights Reserved        *
*    UNPUBLISHED LICENSED SOFTWARE   *
*   Contains Proprietary Information *
*      Which is The Property of      *
*     SYMMETRY OR ITS LICENSORS      *
*Commercial Use or Resale Restricted *
*   by Symmetry License Agreement    *
**************************************
* Model generated on Mar 15, 00
* MODEL FORMAT: PSpice
.MODEL Dmbrs140lt3 d
+IS=1.38898e-05 RS=0.0329634 N=1.34738 EG=1.3
+XTI=2.96332 BV=1000 IBV=0.0001 CJO=3.70453e-10
+VJ=0.4 M=0.477935 FC=0.5 TT=1e-09
+KF=0 AF=1
