**************************************
*      Model Generated by MODPEX     *
*Copyright(c) Symmetry Design Systems*
*         All Rights Reserved        *
*    UNPUBLISHED LICENSED SOFTWARE   *
*   Contains Proprietary Information *
*      Which is The Property of      *
*     SYMMETRY OR ITS LICENSORS      *
*    Modeling services provided by   *
* Interface Technologies www.i-t.com *
**************************************
.MODEL Qmj14001 pnp
+IS=1.70918e-12 BF=197.765 NF=0.85 VAF=46.7909
+IKF=10 ISE=2.52596e-11 NE=2.33082 BR=0.1
+NR=0.954324 VAR=467.909 IKR=1.51539 ISC=1.6185e-11
+NC=3 RB=2.27143 IRB=0.167599 RBM=0.1
+RE=0.0001 RC=0.0215809 XTB=0.984358 XTI=1.23642
+EG=1.05 CJE=6.01834e-09 VJE=0.4 MJE=0.571851
+TF=4e-10 XTF=1.5 VTF=1 ITF=1
+CJC=1.54318e-09 VJC=0.4 MJC=0.266606 XCJC=0.8
+FC=0.533333 CJS=0 VJS=0.75 MJS=0.5
+TR=9.57121e-06 PTF=0 KF=0 AF=1
* Model generated on Feb 14, 2004
* Model format: PSpice
