**************************************
*      Model Generated by MODPEX     *
*Copyright(c) Symmetry Design Systems*
*         All Rights Reserved        *
*    UNPUBLISHED LICENSED SOFTWARE   *
*   Contains Proprietary Information *
*      Which is The Property of      *
*     SYMMETRY OR ITS LICENSORS      *
*    Modeling services provided by   *
* Interface Technologies www.i-t.com *
**************************************
.MODEL Qmj15011 npn
+IS=1.42325e-12 BF=120.958 NF=1.00647 VAF=20.5268
+IKF=4.82021 ISE=2.28329e-11 NE=3.199 BR=2.68448
+NR=0.919987 VAR=2.16411 IKR=1.35133 ISC=5.54093e-13
+NC=3.83754 RB=13.8886 IRB=0.1 RBM=0.1
+RE=0.0001 RC=0.272232 XTB=0.1 XTI=1.13588
+EG=1.206 CJE=4.09375e-09 VJE=0.651979 MJE=0.352708
+TF=3.95e-10 XTF=1.35721 VTF=0.995664 ITF=1
+CJC=1.14081e-09 VJC=0.95 MJC=0.23 XCJC=0.803125
+FC=0.533333 CJS=0 VJS=0.75 MJS=0.5
+TR=1e-07 PTF=0 KF=0 AF=1
* Model generated on Jan 16, 2004
* Model format: PSpice
