**************************************
*      Model Generated by MODPEX     *
*Copyright(c) Symmetry Design Systems*
*         All Rights Reserved        *
*    UNPUBLISHED LICENSED SOFTWARE   *
*   Contains Proprietary Information *
*      Which is The Property of      *
*     SYMMETRY OR ITS LICENSORS      *
*Commercial Use or Resale Restricted *
*   by Symmetry License Agreement    *
**************************************
* Model generated on Sep 11, 03
* MODEL FORMAT: PSpice
.MODEL Qmj21195 pnp
+IS=1.07772e-10 BF=221.467 NF=1.13339 VAF=1000
+IKF=4.43562 ISE=3.64015e-10 NE=1.71124 BR=0.100011
+NR=1.48497 VAR=2.1141 IKR=44.3562 ISC=3.14649e-13
+NC=3.17097 RB=3.18766 IRB=0.167048 RBM=0.1
+RE=0.0159182 RC=0.0795912 XTB=0.1 XTI=1
+EG=1.05 CJE=8.75501e-09 VJE=0.99 MJE=0.417932
+TF=1e-08 XTF=164.367 VTF=0.678119 ITF=0.00142259
+CJC=1.07016e-09 VJC=0.967664 MJC=0.437073 XCJC=1
+FC=0.8 CJS=0 VJS=0.75 MJS=0.5
+TR=1e-07 PTF=0 KF=0 AF=1


