**************************************
*      Model Generated by MODPEX     *
*Copyright(c) Symmetry Design Systems*
*         All Rights Reserved        *
*    UNPUBLISHED LICENSED SOFTWARE   *
*   Contains Proprietary Information *
*      Which is The Property of      *
*     SYMMETRY OR ITS LICENSORS      *
*    Modeling services provided by   *
* Interface Technologies www.i-t.com *
**************************************
.MODEL Qmj802 npn
+IS=1.1405e-13 BF=82.4523 NF=0.85 VAF=41.1923
+IKF=10 ISE=7.99636e-12 NE=1.78384 BR=1.01878
+NR=0.897328 VAR=411.923 IKR=3.31441 ISC=1e-16
+NC=2.84375 RB=1.74124 IRB=0.1 RBM=0.1
+RE=0.000335046 RC=0.0461916 XTB=0.767126 XTI=1.18872
+EG=1.1622 CJE=1e-07 VJE=0.4 MJE=0.792756
+TF=1e-08 XTF=1.35771 VTF=1.00007 ITF=0.99945
+CJC=5e-10 VJC=0.400213 MJC=0.410136 XCJC=0.803125
+FC=0.775003 CJS=0 VJS=0.75 MJS=0.5
+TR=1e-07 PTF=0 KF=0 AF=1
* Model generated on Feb 15, 2004
* Model format: PSpice
