**************************************
*      Model Generated by MODPEX     *
*Copyright(c) Symmetry Design Systems*
*         All Rights Reserved        *
*    UNPUBLISHED LICENSED SOFTWARE   *
*   Contains Proprietary Information *
*      Which is The Property of      *
*     SYMMETRY OR ITS LICENSORS      *
*    Modeling services provided by   *
* Interface Technologies www.i-t.com *
**************************************
.MODEL Qmjd148t4 npn
+IS=4.06109e-13 BF=65.053 NF=0.85 VAF=37.9566
+IKF=4.97173 ISE=2.08895e-12 NE=1.82306 BR=6.5053
+NR=0.75 VAR=310.159 IKR=0.0679858 ISC=1.74992e-12
+NC=2.96875 RB=437.5 IRB=0.122856 RBM=0.154057
+RE=0.000879293 RC=0.13394 XTB=1.11418 XTI=1.06269
+EG=1.11584 CJE=9.99802e-08 VJE=0.4 MJE=0.849802
+TF=9.99802e-09 XTF=0.05 VTF=0.1 ITF=0.001
+CJC=4.99802e-10 VJC=0.4 MJC=0.849802 XCJC=0.1
+FC=0.999802 CJS=0 VJS=0.75 MJS=0.5
+TR=1e-07 PTF=0 KF=0 AF=1
* Model generated on Dec 26, 2003
* Model format: PSpice
