**************************************
*      Model Generated by MODPEX     *
*Copyright(c) Symmetry Design Systems*
*         All Rights Reserved        *
*    UNPUBLISHED LICENSED SOFTWARE   *
*   Contains Proprietary Information *
*      Which is The Property of      *
*     SYMMETRY OR ITS LICENSORS      *
*    Modeling services provided by   *
* Interface Technologies www.i-t.com *
**************************************
.MODEL Qmjd200t4 npn
+IS=2.31976e-10 BF=274.277 NF=1.22121 VAF=10
+IKF=4.53743 ISE=4.78442e-12 NE=3.46503 BR=3.40023
+NR=1.2508 VAR=1.99352 IKR=4.38019 ISC=4.75e-13
+NC=3.96875 RB=3.84223 IRB=0.1 RBM=0.1
+RE=0.000667451 RC=0.157677 XTB=0.1 XTI=1
+EG=1.05 CJE=1.52279e-10 VJE=0.99 MJE=0.344134
+TF=1.45729e-09 XTF=1.1752 VTF=11.1201 ITF=0.00984053
+CJC=1.07573e-10 VJC=0.4 MJC=0.304721 XCJC=0.8
+FC=0.554022 CJS=0 VJS=0.75 MJS=0.5
+TR=1e-07 PTF=0 KF=0 AF=1
* Model generated on Dec 17, 2003
* Model format: PSpice
