**************************************
*      Model Generated by MODPEX     *
*Copyright(c) Symmetry Design Systems*
*         All Rights Reserved        *
*    UNPUBLISHED LICENSED SOFTWARE   *
*   Contains Proprietary Information *
*      Which is The Property of      *
*     SYMMETRY OR ITS LICENSORS      *
*    Modeling services provided by   *
* Interface Technologies www.i-t.com *
**************************************
.MODEL Qmjd340t4 npn
+IS=4.91896e-11 BF=39.149 NF=1.31389 VAF=14.3319
+IKF=5.63207 ISE=9.73581e-12 NE=3.18511 BR=2.87396
+NR=1.20467 VAR=2.57111 IKR=3.4775 ISC=2.49996e-13
+NC=3.9375 RB=2.86106 IRB=0.114976 RBM=0.336838
+RE=0.00145095 RC=1.73829 XTB=0.20026 XTI=1.06305
+EG=1.13478 CJE=1e-11 VJE=0.75 MJE=0.33
+TF=1e-09 XTF=1 VTF=10 ITF=0.01
+CJC=1e-11 VJC=0.75 MJC=0.33 XCJC=0.9
+FC=0.5 CJS=0 VJS=0.75 MJS=0.5
+TR=1e-07 PTF=0 KF=0 AF=1
* Model generated on Dec 17, 2003
* Model format: PSpice
