**************************************
*      Model Generated by MODPEX     *
*Copyright(c) Symmetry Design Systems*
*         All Rights Reserved        *
*    UNPUBLISHED LICENSED SOFTWARE   *
*   Contains Proprietary Information *
*      Which is The Property of      *
*     SYMMETRY OR ITS LICENSORS      *
*Commercial Use or Resale Restricted *
*   by Symmetry License Agreement    *
**************************************
* Model generated on Oct 25, 01
* MODEL FORMAT: PSpice
.MODEL Qmjd47 npn
+IS=7.71231e-12 BF=345.005 NF=1.12994 VAF=14.9678
+IKF=0.0368385 ISE=1e-08 NE=2.18034 BR=34.5005
+NR=1.30402 VAR=148.509 IKR=0.00236541 ISC=1e-08
+NC=1.82387 RB=0.454886 IRB=0.1 RBM=0.454886
+RE=1e-05 RC=0.108387 XTB=0.01 XTI=1.21412
+EG=1.09924 CJE=1e-11 VJE=0.75 MJE=0.33
+TF=1e-09 XTF=1 VTF=10 ITF=0.01
+CJC=1e-11 VJC=0.75 MJC=0.33 XCJC=0.9
+FC=0.5 CJS=0 VJS=0.75 MJS=0.5
+TR=9.95306e-06 PTF=0 KF=0 AF=1

