**************************************
*      Model Generated by MODPEX     *
*Copyright(c) Symmetry Design Systems*
*         All Rights Reserved        *
*    UNPUBLISHED LICENSED SOFTWARE   *
*   Contains Proprietary Information *
*      Which is The Property of      *
*     SYMMETRY OR ITS LICENSORS      *
*    Modeling services provided by   *
* Interface Technologies www.i-t.com *
**************************************
.MODEL Qmjd41ct4 npn
+IS=1e-09 BF=144.78 NF=1.5 VAF=10
+IKF=1.02835 ISE=9.62952e-10 NE=2.237 BR=0.1
+NR=0.75 VAR=100 IKR=0.0943743 ISC=1e-16
+NC=2.46875 RB=0.530479 IRB=0.1 RBM=0.1
+RE=0.0001 RC=0.168855 XTB=0.837554 XTI=1
+EG=1.206 CJE=2.02053e-10 VJE=0.4 MJE=0.278926
+TF=1e-08 XTF=2.23447 VTF=4.69895 ITF=0.0114179
+CJC=1.08276e-10 VJC=0.775469 MJC=0.23 XCJC=0.799989
+FC=0.8 CJS=0 VJS=0.75 MJS=0.5
+TR=1e-07 PTF=0 KF=0 AF=1
* Model generated on Dec 26, 2003
* Model format: PSpice
