**************************************
*      Model Generated by MODPEX     *
*Copyright(c) Symmetry Design Systems*
*         All Rights Reserved        *
*    UNPUBLISHED LICENSED SOFTWARE   *
*   Contains Proprietary Information *
*      Which is The Property of      *
*     SYMMETRY OR ITS LICENSORS      *
*    Modeling services provided by   *
* Interface Technologies www.i-t.com *
**************************************
.MODEL Qmje15028 npn
+IS=1.67457e-10 BF=151.597 NF=1.12464 VAF=48.0367
+IKF=2.26566 ISE=1e-16 NE=1 BR=0.874154
+NR=1.25219 VAR=480.367 IKR=1.50672 ISC=1e-16
+NC=2.99999 RB=16.5394 IRB=0.1 RBM=0.1
+RE=0.000147477 RC=0.0444081 XTB=0.84328 XTI=1
+EG=1.05 CJE=5.12619e-10 VJE=0.4 MJE=0.663107
+TF=1.88824e-09 XTF=39.7723 VTF=212.462 ITF=55.8204
+CJC=2.40888e-10 VJC=0.4 MJC=0.35679 XCJC=0.100001
+FC=0.8 CJS=0 VJS=0.75 MJS=0.5
+TR=2.26516e-06 PTF=0 KF=0 AF=1
* Model generated on Feb  1, 2004
* Model format: PSpice
