**************************************
*      Model Generated by MODPEX     *
*Copyright(c) Symmetry Design Systems*
*         All Rights Reserved        *
*    UNPUBLISHED LICENSED SOFTWARE   *
*   Contains Proprietary Information *
*      Which is The Property of      *
*     SYMMETRY OR ITS LICENSORS      *
*    Modeling services provided by   *
* Interface Technologies www.i-t.com *
**************************************
.MODEL Qmje18006 npn
+IS=1e-09 BF=28.8898 NF=0.98381 VAF=35.2416
+IKF=2.3687 ISE=3.961e-12 NE=3.49212 BR=2.88898
+NR=0.881962 VAR=3.52521 IKR=2.31654 ISC=4.95445e-13
+NC=3.98394 RB=1.77921 IRB=0.1 RBM=0.1
+RE=0.000259074 RC=0.175697 XTB=0.1 XTI=1
+EG=1.05 CJE=2.99068e-09 VJE=0.633882 MJE=0.437251
+TF=1e-08 XTF=1.80151 VTF=2.78646 ITF=0.473365
+CJC=3.77665e-10 VJC=0.4 MJC=0.516978 XCJC=0.799895
+FC=0.8 CJS=0 VJS=0.75 MJS=0.5
+TR=4.04817e-07 PTF=0 KF=0 AF=1
* Model generated on Feb  1, 2004
* Model format: PSpice
