**************************************
*      Model Generated by MODPEX     *
*Copyright(c) Symmetry Design Systems*
*         All Rights Reserved        *
*    UNPUBLISHED LICENSED SOFTWARE   *
*   Contains Proprietary Information *
*      Which is The Property of      *
*     SYMMETRY OR ITS LICENSORS      *
*    Modeling services provided by   *
* Interface Technologies www.i-t.com *
**************************************
.MODEL Qmje182 npn
+IS=1e-17 BF=198.35 NF=1.0206 VAF=12.4376
+IKF=1.11965 ISE=7.21502e-12 NE=3.15832 BR=4.34273
+NR=1.1475 VAR=2.3972 IKR=10 ISC=3.89992e-13
+NC=3.99001 RB=0.1 IRB=0.1 RBM=0.1
+RE=0.0001 RC=0.49763 XTB=0.1 XTI=1.08146
+EG=1.206 CJE=1.20187e-10 VJE=0.813111 MJE=0.386263
+TF=9.98546e-10 XTF=0.998055 VTF=9.87785 ITF=0.00987268
+CJC=2.86035e-11 VJC=0.4 MJC=0.246763 XCJC=0.8
+FC=0.537414 CJS=0 VJS=0.75 MJS=0.5
+TR=6.20767e-07 PTF=0 KF=0 AF=1
* Model generated on Feb 21, 2004
* Model format: PSpice
