**************************************
*      Model Generated by MODPEX     *
*Copyright(c) Symmetry Design Systems*
*         All Rights Reserved        *
*    UNPUBLISHED LICENSED SOFTWARE   *
*   Contains Proprietary Information *
*      Which is The Property of      *
*     SYMMETRY OR ITS LICENSORS      *
*Commercial Use or Resale Restricted *
*   by Symmetry License Agreement    *
**************************************
* Model generated on Oct 31, 03
* MODEL FORMAT: PSpice
.MODEL Qmje200 npn
+IS=4.05292e-12 BF=380.795 NF=1.12262 VAF=3.13981
+IKF=2.93627 ISE=2.00947e-11 NE=1.68705 BR=0.235532
+NR=1.28142 VAR=2.69274 IKR=3.00157 ISC=5.4677e-13
+NC=3.93885 RB=3.97224 IRB=0.1 RBM=0.1
+RE=0.0001 RC=0.183575 XTB=0.1 XTI=1
+EG=1.05 CJE=2.005e-10 VJE=0.99 MJE=0.364577
+TF=1.51626e-09 XTF=1.18106 VTF=11.1354 ITF=0.00993068
+CJC=1.29309e-10 VJC=0.727072 MJC=0.261798 XCJC=0.8
+FC=0.565346 CJS=0 VJS=0.75 MJS=0.5
+TR=2.1444e-06 PTF=0 KF=0 AF=1


