**************************************
*      Model Generated by MODPEX     *
*Copyright(c) Symmetry Design Systems*
*         All Rights Reserved        *
*    UNPUBLISHED LICENSED SOFTWARE   *
*   Contains Proprietary Information *
*      Which is The Property of      *
*     SYMMETRY OR ITS LICENSORS      *
*    Modeling services provided by   *
* Interface Technologies www.i-t.com *
**************************************
.MODEL Qmje344 npn
+IS=9.18333e-14 BF=125.9 NF=1.5 VAF=273.809
+IKF=0.242499 ISE=3.44405e-11 NE=2.582 BR=0.917609
+NR=1.5 VAR=194.251 IKR=2.42499 ISC=5.12215e-12
+NC=1.82076 RB=0.1 IRB=0.1 RBM=0.1
+RE=0.0001 RC=1.69909 XTB=0.495049 XTI=1
+EG=1.05 CJE=7.525e-12 VJE=0.651979 MJE=0.352708
+TF=3.53505e-10 XTF=1.01449 VTF=10.4725 ITF=0.00995664
+CJC=2.74472e-11 VJC=0.752325 MJC=0.304281 XCJC=0.896875
+FC=0.501042 CJS=0 VJS=0.75 MJS=0.5
+TR=1e-07 PTF=0 KF=0 AF=1
* Model generated on Feb 15, 2004
* Model format: PSpice
