**************************************
*      Model Generated by MODPEX     *
*Copyright(c) Symmetry Design Systems*
*         All Rights Reserved        *
*    UNPUBLISHED LICENSED SOFTWARE   *
*   Contains Proprietary Information *
*      Which is The Property of      *
*     SYMMETRY OR ITS LICENSORS      *
*    Modeling services provided by   *
* Interface Technologies www.i-t.com *
**************************************
.MODEL Qmjf15030 npn
+IS=8.52586e-11 BF=111.756 NF=1.12559 VAF=24.6951
+IKF=9.20535 ISE=5.49997e-12 NE=3.4375 BR=3.01415
+NR=1.24186 VAR=3.47825 IKR=6.10635 ISC=6.25e-13
+NC=3.90625 RB=8.46485 IRB=0.1 RBM=0.1
+RE=0.00048424 RC=0.142581 XTB=0.120563 XTI=1
+EG=1.10791 CJE=3.00414e-09 VJE=0.411662 MJE=0.51835
+TF=1.87342e-09 XTF=1000 VTF=2395.66 ITF=178.85
+CJC=2.59252e-10 VJC=0.4 MJC=0.383014 XCJC=0.785372
+FC=0.1 CJS=0 VJS=0.75 MJS=0.5
+TR=8.8568e-07 PTF=0 KF=0 AF=1
* Model generated on Feb  1, 2004
* Model format: PSpice
