**************************************
*      Model Generated by MODPEX     *
*Copyright(c) Symmetry Design Systems*
*         All Rights Reserved        *
*    UNPUBLISHED LICENSED SOFTWARE   *
*   Contains Proprietary Information *
*      Which is The Property of      *
*     SYMMETRY OR ITS LICENSORS      *
*    Modeling services provided by   *
* Interface Technologies www.i-t.com *
**************************************
.MODEL Qmjf45h11 pnp
+IS=8.6047e-11 BF=229.633 NF=0.85 VAF=20.9106
+IKF=7.05768 ISE=3.9999e-12 NE=3.50001 BR=3.08467
+NR=0.762761 VAR=1.96964 IKR=6.22037 ISC=5.5e-13
+NC=3.9375 RB=7.95822 IRB=0.1 RBM=0.1
+RE=0.000511455 RC=0.061563 XTB=0.138149 XTI=1.03079
+EG=1.09245 CJE=1.03808e-09 VJE=0.652004 MJE=0.352688
+TF=3.0974e-09 XTF=1.35719 VTF=0.995484 ITF=1.00003
+CJC=5e-10 VJC=0.504995 MJC=0.255734 XCJC=0.803125
+FC=0.533317 CJS=0 VJS=0.75 MJS=0.5
+TR=2.13288e-08 PTF=0 KF=0 AF=1
* Model generated on Feb  7, 2004
* Model format: PSpice
