**************************************
*      Model Generated by MODPEX     *
*Copyright(c) Symmetry Design Systems*
*         All Rights Reserved        *
*    UNPUBLISHED LICENSED SOFTWARE   *
*   Contains Proprietary Information *
*      Which is The Property of      *
*     SYMMETRY OR ITS LICENSORS      *
*Commercial Use or Resale Restricted *
*   by Symmetry License Agreement    *
**************************************
* Model generated on Jul 20, 03
* MODEL FORMAT: PSpice
.MODEL Qmjl1302a pnp
+IS=3.25053e-12 BF=60.3363 NF=0.992063 VAF=19.8199
+IKF=7.18352 ISE=3.25712e-12 NE=3.42487 BR=5.15499
+NR=1.03617 VAR=2.77936 IKR=9.38159 ISC=2.5e-13
+NC=3.89405 RB=0.776136 IRB=0.0998107 RBM=0.776136
+RE=0.000613663 RC=0.0424163 XTB=1.43773 XTI=1
+EG=1.05 CJE=1.57135e-08 VJE=0.728073 MJE=0.42161
+TF=2.63264e-09 XTF=1000 VTF=4.11586 ITF=266.249
+CJC=1.79861e-09 VJC=0.814822 MJC=0.473271 XCJC=1
+FC=0.8 CJS=0 VJS=0.75 MJS=0.5
+TR=1e-07 PTF=0 KF=0 AF=1


