**************************************
*      Model Generated by MODPEX     *
*Copyright(c) Symmetry Design Systems*
*         All Rights Reserved        *
*    UNPUBLISHED LICENSED SOFTWARE   *
*   Contains Proprietary Information *
*      Which is The Property of      *
*     SYMMETRY OR ITS LICENSORS      *
*Commercial Use or Resale Restricted *
*   by Symmetry License Agreement    *
**************************************
* Model generated on Aug 12, 03
* MODEL FORMAT: PSpice
.MODEL Qmjl4281a npn
+IS=9.94641e-11 BF=191.836 NF=1.11524 VAF=24.7449
+IKF=5.75399 ISE=6.4507e-12 NE=3.39407 BR=4.35182
+NR=1.1764 VAR=4.25175 IKR=6.61715 ISC=3.89999e-13
+NC=3.99 RB=4.37715 IRB=0.00966879 RBM=1e-15
+RE=0.00608852 RC=0.0434329 XTB=0.661303 XTI=1.00355
+EG=1.05 CJE=9.04931e-09 VJE=0.99 MJE=0.844324
+TF=1.6665e-09 XTF=1000 VTF=17023.9 ITF=152.472
+CJC=8.80163e-10 VJC=0.942802 MJC=0.23183 XCJC=1
+FC=0.8 CJS=0 VJS=0.75 MJS=0.5
+TR=1e-07 PTF=0 KF=0 AF=1


