**************************************
*      Model Generated by MODPEX     *
*Copyright(c) Symmetry Design Systems*
*         All Rights Reserved        *
*    UNPUBLISHED LICENSED SOFTWARE   *
*   Contains Proprietary Information *
*      Which is The Property of      *
*     SYMMETRY OR ITS LICENSORS      *
*Commercial Use or Resale Restricted *
*   by Symmetry License Agreement    *
**************************************
* Model generated on Feb 10, 03
* MODEL FORMAT: PSpice
.MODEL Qmjw18020 npn
+IS=3.72142e-11 BF=30.7431 NF=0.960385 VAF=21.725
+IKF=8.07709 ISE=6.93069e-12 NE=3.40985 BR=2.88351
+NR=0.951749 VAR=6.69342 IKR=7.86366 ISC=9.29728e-13
+NC=3.84248 RB=0.754593 IRB=0.099487 RBM=0.0978383
+RE=9.85689e-05 RC=0.0191712 XTB=1.497 XTI=0.998322
+EG=0.989777 CJE=1.79317e-08 VJE=0.586594 MJE=0.350405
+TF=2.65688e-09 XTF=1.35728 VTF=0.996258 ITF=0.999922
+CJC=1.05955e-09 VJC=0.844877 MJC=0.502538 XCJC=0.80312
+FC=0.998059 CJS=0 VJS=0.75 MJS=0.5
+TR=9.54845e-06 PTF=0 KF=0 AF=1


