**************************************
*      Model Generated by MODPEX     *
*Copyright(c) Symmetry Design Systems*
*         All Rights Reserved        *
*    UNPUBLISHED LICENSED SOFTWARE   *
*   Contains Proprietary Information *
*      Which is The Property of      *
*     SYMMETRY OR ITS LICENSORS      *
*Commercial Use or Resale Restricted *
*   by Symmetry License Agreement    *
**************************************
* Model generated on Mar  7, 02
* MODEL FORMAT: PSpice
.MODEL Dmmbd914lt1 d
+IS=5.88202e-09 RS=1.12119 N=1.90359 EG=1.12528
+XTI=2.6298 BV=110 IBV=0.0001 CJO=6.21124e-13
+VJ=0.178347 M=0.0420903 FC=0.5 TT=4.15496e-09
+KF=0 AF=1
