**************************************
*      Model Generated by MODPEX     *
*Copyright(c) Symmetry Design Systems*
*         All Rights Reserved        *
*    UNPUBLISHED LICENSED SOFTWARE   *
*   Contains Proprietary Information *
*      Which is The Property of      *
*     SYMMETRY OR ITS LICENSORS      *
*Commercial Use or Resale Restricted *
*   by Symmetry License Agreement    *
**************************************
* Model generated on Dec 19, 02
* MODEL FORMAT: PSpice
.MODEL Qmmbt4403lt1 pnp
+IS=2.27561e-13 BF=654.468 NF=1.0413 VAF=57.8473
+IKF=0.999887 ISE=2.91474e-13 NE=1.46619 BR=65.4461
+NR=0.985329 VAR=1.25802 IKR=9.99887 ISC=2.90757e-13
+NC=4 RB=0.100101 IRB=0.0999996 RBM=0.100057
+RE=0.000100001 RC=0.55887 XTB=0.428469 XTI=1
+EG=1.05 CJE=3.17143e-11 VJE=0.4 MJE=0.276014
+TF=2.4179e-10 XTF=1.35721 VTF=0.995669 ITF=0.999998
+CJC=1.61963e-11 VJC=0.4 MJC=0.368678 XCJC=0.896875
+FC=0.1 CJS=0 VJS=0.75 MJS=0.5
+TR=2.71021e-09 PTF=0 KF=0 AF=1


