**************************************
*      Model Generated by MODPEX     *
*Copyright(c) Symmetry Design Systems*
*         All Rights Reserved        *
*    UNPUBLISHED LICENSED SOFTWARE   *
*   Contains Proprietary Information *
*      Which is The Property of      *
*     SYMMETRY OR ITS LICENSORS      *
*Commercial Use or Resale Restricted *
*   by Symmetry License Agreement    *
**************************************
* Model generated on May 14, 03
* MODEL FORMAT: PSpice
.MODEL Qmmbt6520lt1 pnp
+IS=2.61701e-13 BF=149.161 NF=1.11879 VAF=10
+IKF=0.0112641 ISE=4.77309e-10 NE=2.3782 BR=0.1
+NR=1.5 VAR=5.58537 IKR=0.0709745 ISC=4.77309e-10
+NC=1.80126 RB=10.5001 IRB=49.6423 RBM=0.1
+RE=0.0001 RC=2.31482 XTB=0.1 XTI=4
+EG=1.206 CJE=5.61244e-11 VJE=0.783217 MJE=0.366941
+TF=1.81457e-09 XTF=1000 VTF=100000 ITF=1.0902
+CJC=1.15331e-11 VJC=0.4 MJC=0.269645 XCJC=1
+FC=0.8 CJS=0 VJS=0.75 MJS=0.5
+TR=9.57121e-06 PTF=0 KF=0 AF=1


