**************************************
*      Model Generated by MODPEX     *
*Copyright(c) Symmetry Design Systems*
*         All Rights Reserved        *
*    UNPUBLISHED LICENSED SOFTWARE   *
*   Contains Proprietary Information *
*      Which is The Property of      *
*     SYMMETRY OR ITS LICENSORS      *
*Commercial Use or Resale Restricted *
*   by Symmetry License Agreement    *
**************************************
* Model generated on Jul  3, 02
* MODEL FORMAT: PSpice
.MODEL Qmmbt2369alt1 npn
+IS=1.43984e-13 BF=526.086 NF=1.21978 VAF=3.62518
+IKF=0.00878191 ISE=1e-08 NE=3.71149 BR=2.58372
+NR=1.22662 VAR=7.2229 IKR=0.0878191 ISC=1e-08
+NC=2.29158 RB=1e-08 IRB=0.13867 RBM=1e-09
+RE=0.0001 RC=1.22519 XTB=1e-12 XTI=1e-12
+EG=1.05 CJE=3.2936e-12 VJE=0.329753 MJE=0.23
+TF=4e-10 XTF=1.5 VTF=1 ITF=1
+CJC=3.07126e-12 VJC=0.120633 MJC=0.0566184 XCJC=0.8
+FC=0.533333 CJS=0 VJS=0.75 MJS=0.5
+TR=6.09825e-09 PTF=0 KF=0 AF=1


