**************************************
*      Model Generated by MODPEX     *
*Copyright(c) Symmetry Design Systems*
*         All Rights Reserved        *
*    UNPUBLISHED LICENSED SOFTWARE   *
*   Contains Proprietary Information *
*      Which is The Property of      *
*     SYMMETRY OR ITS LICENSORS      *
*Commercial Use or Resale Restricted *
*   by Symmetry License Agreement    *
**************************************
* Model generated on Aug 30, 02
* MODEL FORMAT: PSpice
.MODEL Qmmbt2484lt1 npn
+IS=1.22977e-16 BF=1524.57 NF=1.04575 VAF=11.5596
+IKF=0.0369817 ISE=2.27409e-15 NE=1.5162 BR=2.01922
+NR=1.08046 VAR=3.87717 IKR=1e-05 ISC=1.039e-16
+NC=3.02862 RB=1e-09 IRB=0.1 RBM=1e-09
+RE=0.00509671 RC=1.36039 XTB=1e-06 XTI=1
+EG=1.206 CJE=7.81663e-12 VJE=0.796434 MJE=0.435067
+TF=1.59746e-10 XTF=1 VTF=10 ITF=0.01
+CJC=4.99634e-12 VJC=0.535762 MJC=0.370904 XCJC=0.9
+FC=0.855614 TR=1e-07 PTF=0 KF=2e-15
+AF=1 RCO=75.8123 VO=9.65021 GAMMA=6.85145e-10
+QCO=5.42809e-13
