**************************************
*      Model Generated by MODPEX     *
*Copyright(c) Symmetry Design Systems*
*         All Rights Reserved        *
*    UNPUBLISHED LICENSED SOFTWARE   *
*   Contains Proprietary Information *
*      Which is The Property of      *
*     SYMMETRY OR ITS LICENSORS      *
*    Modeling services provided by   *
* Interface Technologies www.i-t.com *
**************************************
.MODEL Qmmjt350t1 pnp
+IS=1.45223e-15 BF=94.512 NF=0.853288 VAF=94.0711
+IKF=0.0820791 ISE=4.95851e-13 NE=3.10496 BR=1.56814
+NR=0.845797 VAR=22.3565 IKR=0.820791 ISC=4.95851e-13
+NC=3.90626 RB=3.69037 IRB=0.1 RBM=0.1
+RE=0.0001 RC=0.222792 XTB=1.27056 XTI=1
+EG=1.206 CJE=1e-11 VJE=0.75 MJE=0.33
+TF=1e-09 XTF=1 VTF=10 ITF=0.01
+CJC=1e-11 VJC=0.75 MJC=0.33 XCJC=0.9
+FC=0.5 CJS=0 VJS=0.75 MJS=0.5
+TR=1e-07 PTF=0 KF=0 AF=1
* Model generated on Mar  7, 2004
* Model format: PSpice
