**************************************
*      Model Generated by MODPEX     *
*Copyright(c) Symmetry Design Systems*
*         All Rights Reserved        *
*    UNPUBLISHED LICENSED SOFTWARE   *
*   Contains Proprietary Information *
*      Which is The Property of      *
*     SYMMETRY OR ITS LICENSORS      *
*Commercial Use or Resale Restricted *
*   by Symmetry License Agreement    *
**************************************
* Model generated on Mar 12, 03
* MODEL FORMAT: PSpice
.MODEL Qmmjt9435 pnp
+IS=7.44058e-12 BF=1221.78 NF=1.06734 VAF=18.1073
+IKF=0.907919 ISE=1.48369e-11 NE=1.46826 BR=14.3222
+NR=1.07881 VAR=67.1412 IKR=0.258641 ISC=1.48369e-11
+NC=3.06893 RB=157.068 IRB=1.76123e-05 RBM=0.000221391
+RE=0.0232469 RC=0.116235 XTB=0.1 XTI=4
+EG=1.05 CJE=1.79831e-09 VJE=0.4 MJE=0.85
+TF=2.79429e-10 XTF=5.99131 VTF=523.348 ITF=6.82425
+CJC=3.38482e-10 VJC=0.4 MJC=0.363672 XCJC=1e-06
+FC=0.648259 CJS=0 VJS=0.75 MJS=0.5
+TR=1e-07 PTF=0 KF=0 AF=1


