**************************************
*      Model Generated by MODPEX     *
*Copyright(c) Symmetry Design Systems*
*         All Rights Reserved        *
*    UNPUBLISHED LICENSED SOFTWARE   *
*   Contains Proprietary Information *
*      Which is The Property of      *
*     SYMMETRY OR ITS LICENSORS      *
*Commercial Use or Resale Restricted *
*   by Symmetry License Agreement    *
**************************************
* Model generated on Feb  7, 03
* MODEL FORMAT: PSpice
.MODEL Dmmsd4148t1 d
+IS=5.48945e-09 RS=1.13897 N=1.88799 EG=1.16621
+XTI=0.05 BV=100 IBV=0.0001 CJO=6.19161e-13
+VJ=0.4 M=0.0531837 FC=0.5 TT=5.1937e-09
+KF=0 AF=1


