**************************************
*      Model Generated by MODPEX     *
*Copyright(c) Symmetry Design Systems*
*         All Rights Reserved        *
*    UNPUBLISHED LICENSED SOFTWARE   *
*   Contains Proprietary Information *
*      Which is The Property of      *
*     SYMMETRY OR ITS LICENSORS      *
*    Modeling services provided by   *
* Interface Technologies www.i-t.com *
**************************************
* Model generated on August 31, 2003
* MODEL FORMAT: PSpice
.MODEL Qmpsw06 npn
+IS=2.51199e-11 BF=299.456 NF=1.49433 VAF=81.849
+IKF=1 ISE=4.82216e-11 NE=2.4931 BR=2.52904
+NR=1.5 VAR=6.19329 IKR=10 ISC=4.00142e-13
+NC=3.93735 RB=0.1 IRB=0.1 RBM=0.1
+RE=0.00170675 RC=0.284615 XTB=0.1 XTI=1.04183
+EG=1.05 CJE=3.54993e-11 VJE=0.99 MJE=0.85
+TF=5.1601e-10 XTF=1000 VTF=95.6316 ITF=9.06857
+CJC=1.78027e-11 VJC=0.4 MJC=0.294055 XCJC=0.9047
+FC=0.1 CJS=0 VJS=0.75 MJS=0.5
+TR=1e-07 PTF=0 KF=0 AF=1



