**************************************
*      Model Generated by MODPEX     *
*Copyright(c) Symmetry Design Systems*
*         All Rights Reserved        *
*    UNPUBLISHED LICENSED SOFTWARE   *
*   Contains Proprietary Information *
*      Which is The Property of      *
*     SYMMETRY OR ITS LICENSORS      *
*    Modeling services provided by   *
* Interface Technologies www.i-t.com *
**************************************
.MODEL Dmr2502 d
+IS=2.18296e-07 RS=0.00155802 N=1.8595 EG=1.3
+XTI=0.5 BV=200 IBV=0.0001 CJO=4.65863e-10
+VJ=0.626483 M=0.448974 FC=0.5 TT=7.79055e-06
+KF=0 AF=1
* Model generated on Dec  7, 2003
* Model format: PSpice
