**************************************
*      Model Generated by MODPEX     *
*Copyright(c) Symmetry Design Systems*
*         All Rights Reserved        *
*    UNPUBLISHED LICENSED SOFTWARE   *
*   Contains Proprietary Information *
*      Which is The Property of      *
*     SYMMETRY OR ITS LICENSORS      *
*    Modeling services provided by   *
* Interface Technologies www.i-t.com *
**************************************
.MODEL Dmr752rl d
+IS=5.86767e-08 RS=0.00170257 N=1.73738 EG=0.6
+XTI=0.5 BV=200 IBV=2.5e-05 CJO=1.33832e-09
+VJ=0.4 M=0.708966 FC=0.5 TT=5.45339e-06
+KF=0 AF=1
* Model generated on September 24, 2003
* Model format: PSpice
