**************************************
*      Model Generated by MODPEX     *
*Copyright(c) Symmetry Design Systems*
*         All Rights Reserved        *
*    UNPUBLISHED LICENSED SOFTWARE   *
*   Contains Proprietary Information *
*      Which is The Property of      *
*     SYMMETRY OR ITS LICENSORS      *
*    Modeling services provided by   *
* Interface Technologies www.i-t.com *
**************************************
.MODEL Dmur1640ct d
+IS=5.5178e-05 RS=0.0175932 N=3.45508 EG=1.52246
+XTI=0.005 BV=400 IBV=1e-05 CJO=2.42733e-10
+VJ=1.5 M=0.47257 FC=0.5 TT=1.10984e-07
+KF=0 AF=1
* Model generated on October 8, 2003
* Model format: PSpice
