.SUBCKT mur2100e 11 16
**************************************
*      Model Generated by MODPEX     *
*Copyright(c) Symmetry Design Systems*
*         All Rights Reserved        *
*    UNPUBLISHED LICENSED SOFTWARE   *
*   Contains Proprietary Information *
*      Which is The Property of      *
*     SYMMETRY OR ITS LICENSORS      *
*Commercial Use or Resale Restricted *
*   by Symmetry License Agreement    *
**************************************
* Model generated on Mar 22, 00
* MODEL FORMAT: PSpice
rs 11 12 1e-05
vdsense 13 1 0
e9 12 13 value={12.0787*i(vdsense)/(1e+10*v(3)+0.0120787)}
r9 12 13 1e12
g1 1 16 value={v(7)+v(8)}
rdc2 2 0 1e12
e2 22 0 1 16 0.5
vqe 22 23 0
dqe 23 0 dqemod
.model dqemod d (is=1.25814e-11 n=0.821056 eg=0.600006 xti=4)
h2 2 0 vqe 2.10068e-07
c3 3 0 100u
rdc3 3 0 1e12
d3 0 3 dqmod
.model dqmod d
vsense 4 5 0
f3 3 0 vsense 1
rdc6 6 0 1e12
e6 6 0 value={2.61202e+07*v(3)}
e4 4 0 value={v(6)-2.13598e+07*v(2)}
r5 5 0 10K
rdc7 7 0 1e12
e7 7 0 value={2.13598e+07*(v(2)-v(3))}
rdc8 8 0 1e12
e8 88 0 1 16 1
vie 88 89 0
die 89 0 diomod
.model diomod d (is=1e-15)
h8 8 0 vie 1
dcj 12 16 dmod
.model dmod d(is=1e-25 n=10
+ cjo=3.06219e-11 vj=0.425627 m=0.532792)
.ends mur2100e