.SUBCKT mur2020r 11 16
**************************************
*      Model Generated by MODPEX     *
*Copyright(c) Symmetry Design Systems*
*         All Rights Reserved        *
*    UNPUBLISHED LICENSED SOFTWARE   *
*   Contains Proprietary Information *
*      Which is The Property of      *
*     SYMMETRY OR ITS LICENSORS      *
*Commercial Use or Resale Restricted *
*   by Symmetry License Agreement    *
**************************************
* Model generated on Jul 26, 00
* MODEL FORMAT: PSpice
rs 11 12 0.00546
vdsense 13 1 0
e9 12 13 value={9.37531*i(vdsense)/(1e+10*v(3)+0.00937531)}
r9 12 13 1e12
g1 1 16 value={v(7)+v(8)}
rdc2 2 0 1e12
e2 22 0 1 16 0.5
vqe 22 23 0
dqe 23 0 dqemod
.model dqemod d (is=2.02436e-07 n=0.883691 eg=1.3 xti=3.12141)
h2 2 0 vqe 1.45547e-07
c3 3 0 100u
rdc3 3 0 1e12
d3 0 3 dqmod
.model dqmod d
vsense 4 5 0
f3 3 0 vsense 1
rdc6 6 0 1e12
e6 6 0 value={3.43897e+07*v(3)}
e4 4 0 value={v(6)-2.75191e+07*v(2)}
r5 5 0 10K
rdc7 7 0 1e12
e7 7 0 value={2.75191e+07*(v(2)-v(3))}
rdc8 8 0 1e12
e8 88 0 1 16 1
vie 88 89 0
die 89 0 diomod
.model diomod d (is=9.99997e-21)
h8 8 0 vie 1
dcj 12 16 dmod
.model dmod d(is=1e-25 n=10
+ cjo=1.35227e-09 vj=0.628132 m=0.43989)
.ends mur2020r