**************************************
*      Model Generated by MODPEX     *
*Copyright(c) Symmetry Design Systems*
*         All Rights Reserved        *
*    UNPUBLISHED LICENSED SOFTWARE   *
*   Contains Proprietary Information *
*      Which is The Property of      *
*     SYMMETRY OR ITS LICENSORS      *
*    Modeling services provided by   *
* Interface Technologies www.i-t.com *
**************************************
.MODEL Dmur880e d
+IS=0.000115431 RS=0.0391528 N=4.3935 EG=1.78942
+XTI=5e-06 BV=800 IBV=2.5e-05 CJO=8.03552e-10
+VJ=1.23196 M=0.546784 FC=0.5 TT=1.66475e-07
+KF=0 AF=1
* Model generated on September 30, 2003
* Model format: PSpice
