**************************************
*      Model Generated by MODPEX     *
*Copyright(c) Symmetry Design Systems*
*         All Rights Reserved        *
*    UNPUBLISHED LICENSED SOFTWARE   *
*   Contains Proprietary Information *
*      Which is The Property of      *
*     SYMMETRY OR ITS LICENSORS      *
*    Modeling services provided by   *
* Interface Technologies www.i-t.com *
**************************************
.MODEL Dmur840 d
+IS=4.5872e-05 RS=0.0232405 N=3.28974 EG=1.40571
+XTI=0.5 BV=400 IBV=1e-05 CJO=5.50406e-10
+VJ=0.4 M=0.440298 FC=0.5 TT=1.04325e-07
+KF=0 AF=1
* Model generated on October 12, 2003
* Model format: PSpice
