**************************************
*      Model Generated by MODPEX     *
*Copyright(c) Symmetry Design Systems*
*         All Rights Reserved        *
*    UNPUBLISHED LICENSED SOFTWARE   *
*   Contains Proprietary Information *
*      Which is The Property of      *
*     SYMMETRY OR ITS LICENSORS      *
*    Modeling services provided by   *
* Interface Technologies www.i-t.com *
**************************************
.MODEL Dmura160t3 d
+IS=1.11356e-09 RS=0.283217 N=1.57799 EG=1.22127
+XTI=0.05 BV=600 IBV=5e-06 CJO=2.2552e-11
+VJ=0.4 M=0.356372 FC=0.5 TT=9.47851e-08
+KF=0 AF=1
* Model generated on October 12, 2003
* Model format: PSpice
