**************************************
*      Model Generated by MODPEX     *
*Copyright(c) Symmetry Design Systems*
*         All Rights Reserved        *
*    UNPUBLISHED LICENSED SOFTWARE   *
*   Contains Proprietary Information *
*      Which is The Property of      *
*     SYMMETRY OR ITS LICENSORS      *
*    Modeling services provided by   *
* Interface Technologies www.i-t.com *
**************************************
.MODEL Dmura205t3 d
+IS=8.90142e-09 RS=0.0373014 N=1.56665 EG=1.11617
+XTI=0.005 BV=50 IBV=2e-06 CJO=4.80524e-11
+VJ=0.4 M=0.365873 FC=0.5 TT=3.63559e-08
+KF=0 AF=1
* Model generated on September 30, 2003
* Model format: PSpice
