**************************************
*      Model Generated by MODPEX     *
*Copyright(c) Symmetry Design Systems*
*         All Rights Reserved        *
*    UNPUBLISHED LICENSED SOFTWARE   *
*   Contains Proprietary Information *
*      Which is The Property of      *
*     SYMMETRY OR ITS LICENSORS      *
*    Modeling services provided by   *
* Interface Technologies www.i-t.com *
**************************************
.MODEL Dmura215t3 d
+IS=1e-07 RS=0.0348157 N=1.88856 EG=1.07928
+XTI=4 BV=150 IBV=0.000002 CJO=4.91686e-11
+VJ=0.4 M=0.427848 FC=0.5 TT=3.89528e-08
+KF=0 AF=1
* Model generated on August 31, 2003
* Model format: PSpice


