.SUBCKT murb1660ct 1 3 4
d1 1 4 halfmurb1660ct
d2 3 4 halfmurb1660ct
.ENDS murb1660ct
*
**************************************
*      Model Generated by MODPEX     *
*Copyright(c) Symmetry Design Systems*
*         All Rights Reserved        *
*    UNPUBLISHED LICENSED SOFTWARE   *
*   Contains Proprietary Information *
*      Which is The Property of      *
*     SYMMETRY OR ITS LICENSORS      *
*Commercial Use or Resale Restricted *
*   by Symmetry License Agreement    *
**************************************
* Model generated on Jan 21, 03
* MODEL FORMAT: PSpice
.MODEL Dhalfmurb1660ct d
+IS=9.33467e-08 RS=0.0416447 N=2 EG=1.3
+XTI=4 BV=600 IBV=2e-06 CJO=4.05185e-10
+VJ=0.651907 M=0.416711 FC=0.5 TT=1.10984e-07
+KF=0 AF=1


