**************************************
*      Model Generated by MODPEX     *
*Copyright(c) Symmetry Design Systems*
*         All Rights Reserved        *
*    UNPUBLISHED LICENSED SOFTWARE   *
*   Contains Proprietary Information *
*      Which is The Property of      *
*     SYMMETRY OR ITS LICENSORS      *
*    Modeling services provided by   *
* Interface Technologies www.i-t.com *
**************************************
.MODEL Dmurf1660ct d
+IS=0.000192889 RS=0.0185291 N=4.09309 EG=1.53196
+XTI=5e-06 BV=600 IBV=1e-05 CJO=2.38893e-11
+VJ=1.30306 M=0.2 FC=0.5 TT=1.06544e-07
+KF=0 AF=1
* Model generated on September 30, 2003
* Model format: PSPICE
