**************************************
*      Model Generated by MODPEX     *
*Copyright(c) Symmetry Design Systems*
*         All Rights Reserved        *
*    UNPUBLISHED LICENSED SOFTWARE   *
*   Contains Proprietary Information *
*      Which is The Property of      *
*     SYMMETRY OR ITS LICENSORS      *
*    Modeling services provided by   *
* Interface Technologies www.i-t.com *
**************************************
.MODEL Dmurhb840ctt4 d
+IS=2.10647e-10 RS=0.123311 N=1.33325 EG=0.6
+XTI=5 BV=400 IBV=1e-05 CJO=1.43072e-10
+VJ=0.4 M=0.452707 FC=0.5 TT=3.37591e-08
+KF=0 AF=1
* Model generated on September 30, 2003
* Model format: PSpice
