**************************************
*      Model Generated by MODPEX     *
*Copyright(c) Symmetry Design Systems*
*         All Rights Reserved        *
*    UNPUBLISHED LICENSED SOFTWARE   *
*   Contains Proprietary Information *
*      Which is The Property of      *
*     SYMMETRY OR ITS LICENSORS      *
*    Modeling services provided by   *
* Interface Technologies www.i-t.com *
**************************************
.MODEL Dmurhf860ct d
+IS=1.32446e-10 RS=0.0638447 N=1.96954 EG=2
+XTI=0.0050284 BV=600 IBV=1e-05 CJO=1.42154e-10
+VJ=0.475849 M=0.468577 FC=0.5 TT=4.54449e-08
+KF=0 AF=1
* Model generated on Dec  7, 2003
* Model format: PSpice
