**************************************
*      Model Generated by MODPEX     *
*Copyright(c) Symmetry Design Systems*
*         All Rights Reserved        *
*    UNPUBLISHED LICENSED SOFTWARE   *
*   Contains Proprietary Information *
*      Which is The Property of      *
*     SYMMETRY OR ITS LICENSORS      *
*    Modeling services provided by   *
* Interface Technologies www.i-t.com *
**************************************
.MODEL Dmurh840ct d
+IS=6.61931e-09 RS=0.092222 N=1.95467 EG=1.72948
+XTI=5e-14 BV=400 IBV=1e-05 CJO=1.5023e-10
+VJ=0.4 M=0.460927 FC=0.5 TT=3.37591e-08
+KF=0 AF=1
* Model generated on September 30, 2003
* Model format: PSpice
