**************************************
*      Model Generated by MODPEX     *
*Copyright(c) Symmetry Design Systems*
*         All Rights Reserved        *
*    UNPUBLISHED LICENSED SOFTWARE   *
*   Contains Proprietary Information *
*      Which is The Property of      *
*     SYMMETRY OR ITS LICENSORS      *
*    Modeling services provided by   *
* Interface Technologies www.i-t.com *
**************************************
.MODEL Dmurp20040ct d
+IS=2.68486e-12 RS=0.00412446 N=0.995532 EG=1.3
+XTI=4 BV=400 IBV=0.00005 CJO=1e-11
+VJ=0.7 M=0.5 FC=0.5 TT=9.08898e-08
+KF=0 AF=1
* Model generated on August 31, 2003
* Model format: PSpice
