**************************************
*      Model Generated by MODPEX     *
*Copyright(c) Symmetry Design Systems*
*         All Rights Reserved        *
*    UNPUBLISHED LICENSED SOFTWARE   *
*   Contains Proprietary Information *
*      Which is The Property of      *
*     SYMMETRY OR ITS LICENSORS      *
*    Modeling services provided by   *
* Interface Technologies www.i-t.com *
**************************************
.MODEL Dmurs115t3 d
+IS=1e-15 RS=0.0572977 N=0.790648 EG=1.04337
+XTI=0.5 BV=150 IBV=0.000002 CJO=1.06518e-10
+VJ=0.4 M=0.626202 FC=0.5 TT=4.43935e-08
+KF=0 AF=1
* Model generated on August 31, 2003
* Model format: PSpice


