**************************************
*      Model Generated by MODPEX     *
*Copyright(c) Symmetry Design Systems*
*         All Rights Reserved        *
*    UNPUBLISHED LICENSED SOFTWARE   *
*   Contains Proprietary Information *
*      Which is The Property of      *
*     SYMMETRY OR ITS LICENSORS      *
*    Modeling services provided by   *
* Interface Technologies www.i-t.com *
**************************************
.MODEL Dmurs220t3 d
+IS=3.32003e-08 RS=0.026498 N=1.77222 EG=1.11143
+XTI=4 BV=200 IBV=0.000002 CJO=9.99294e-11
+VJ=0.4 M=0.619411 FC=0.5 TT=4.43935e-08
+KF=0 AF=1
* Model generated on August 31, 2003
* Model format: PSpice
