**************************************
*      Model Generated by MODPEX     *
*Copyright(c) Symmetry Design Systems*
*         All Rights Reserved        *
*    UNPUBLISHED LICENSED SOFTWARE   *
*   Contains Proprietary Information *
*      Which is The Property of      *
*     SYMMETRY OR ITS LICENSORS      *
*    Modeling services provided by   *
* Interface Technologies www.i-t.com *
**************************************
.MODEL Dmurs140t3 d
+IS=2.64105e-08 RS=0.0991104 N=1.96651 EG=1.28744
+XTI=0.005 BV=400 IBV=5e-06 CJO=3.68621e-11
+VJ=0.4 M=0.9 FC=0.5 TT=1.06544e-07
+KF=0 AF=1
* Model generated on October 12, 2003
* Model format: PSpice
