.SUBCKT nsbc114epdxv6t1 1 2 3 4 5 6
**************************************
*      Model Generated by MODPEX     *
*Copyright(c) Symmetry Design Systems*
*         All Rights Reserved        *
*    UNPUBLISHED LICENSED SOFTWARE   *
*   Contains Proprietary Information *
*      Which is The Property of      *
*     SYMMETRY OR ITS LICENSORS      *
*Commercial Use or Resale Restricted *
*   by Symmetry License Agreement    *
**************************************
* Model generated on Mar 14, 03
* MODEL FORMAT: PSpice
* BRT macro model
* External node 
* Node 1 -> BRT_E2
* Node 2 -> BRT_B2
* Node 3 -> BRT_C1
* Node 4 -> BRT_E1
* Node 5 -> BRT_B1
* Node 6 -> BRT_C2
XQ1  3 5 4 nsbc114epdxv6t1-pnp
XQ2  6 2 1 nsbc114epdxv6t1-npn
.ENDS
*
.SUBCKT nsbc114epdxv6t1-npn 1 2 3 
* MODEL FORMAT: PSpice
* BRT macro model
* External node 
* Node 1 -> BRT_C
* Node 2 -> BRT_B
* Node 3 -> BRT_E
QOUT 1 4 3 qmodel
R1   2 4 10000
R2   4 3 10000
.MODEL qmodel npn
+IS=9.61594e-14 BF=318.052 NF=1.06247 VAF=32.3273
+IKF=0.0928873 ISE=8.02036e-13 NE=2.04618 BR=0.899718
+NR=1.17201 VAR=79.4241 IKR=0.095804 ISC=9.99856e-14
+NC=1.99883 RB=9.97272 IRB=0.197789 RBM=0.995264
+RE=0.000100008 RC=2.36555 XTB=0.477497 XTI=2.99884 EG=1.14831
+CJE=6.54142e-13 VJE=0.744916 MJE=0.335535 TF=1e-09
+XTF=1 VTF=10 ITF=0.01 CJC=3.57128e-12
+VJC=47.8278 MJC=0.9 XCJC=0.9 FC=0.5
.ENDS
*
.SUBCKT nsbc114epdxv6t1-pnp 1 2 3 
* MODEL FORMAT: PSpice
* BRT macro model
* External node 
* Node 1 -> BRT_C
* Node 2 -> BRT_B
* Node 3 -> BRT_E
QOUT 1 4 3 qmodel
R1   2 4 10000
R2   4 3 10000
.MODEL qmodel pnp
+IS=1.45353e-14 BF=201.578 NF=1.0689 VAF=70.4157
+IKF=0.0937743 ISE=2.69024e-15 NE=1.8994 BR=2.30273
+NR=1.09444 VAR=176.711 IKR=0.0680789 ISC=9.08823e-14
+NC=2.62106 RB=9.97124 IRB=0.2 RBM=9.97124
+RE=0.0654023 RC=1.54896 XTB=0.103329 XTI=3.04909 EG=1.206
+CJE=2.55801e-12 VJE=0.746499 MJE=0.333828 TF=1e-09
+XTF=1 VTF=10 ITF=0.01 CJC=3.07272e-12
+VJC=1.04014 MJC=0.170789 XCJC=0.9 FC=0.5
.ENDS