**************************************
*      Model Generated by MODPEX     *
*Copyright(c) Symmetry Design Systems*
*         All Rights Reserved        *
*    UNPUBLISHED LICENSED SOFTWARE   *
*   Contains Proprietary Information *
*      Which is The Property of      *
*     SYMMETRY OR ITS LICENSORS      *
*Commercial Use or Resale Restricted *
*   by Symmetry License Agreement    *
**************************************
* Model generated on Jun 14, 01
* MODEL FORMAT: PSpice
.MODEL Qnsl05tt1 pnp
+IS=5.9091e-12 BF=393.971 NF=1.18733 VAF=44.0738
+IKF=0.298075 ISE=1e-18 NE=4 BR=46.3859
+NR=1.22239 VAR=60.9128 IKR=0.480996 ISC=1.44429e-17
+NC=1.01101 RB=52.5754 IRB=0.000750544 RBM=1e-06
+RE=0.000418588 RC=0.395721 XTB=2.24944 XTI=1.26881
+EG=1.04293 CJE=5.78709e-11 VJE=0.833563 MJE=0.9
+TF=3.95e-10 XTF=1.35721 VTF=0.995664 ITF=1
+CJC=3.84171e-11 VJC=0.935055 MJC=0.429212 XCJC=0.896875
+FC=0.501042 CJS=0 VJS=0.75 MJS=0.5
+TR=1e-07 PTF=0 KF=0 AF=1

