**************************************
*      Model Generated by MODPEX     *
*Copyright(c) Symmetry Design Systems*
*         All Rights Reserved        *
*    UNPUBLISHED LICENSED SOFTWARE   *
*   Contains Proprietary Information *
*      Which is The Property of      *
*     SYMMETRY OR ITS LICENSORS      *
*Commercial Use or Resale Restricted *
*   by Symmetry License Agreement    *
**************************************
* Model generated on May 22, 01
* MODEL FORMAT: PSpice
.MODEL Qnsl12tt1 pnp
+IS=1.69178e-14 BF=239.064 NF=0.937468 VAF=13.4581
+IKF=0.640028 ISE=1.00976e-12 NE=2.66461 BR=3.28955
+NR=1.08703 VAR=134.581 IKR=2.13438 ISC=1.00976e-12
+NC=3.96879 RB=47.8915 IRB=0.1 RBM=0.1
+RE=0.000700364 RC=0.730217 XTB=1.44927 XTI=1
+EG=1.206 CJE=2.26563e-10 VJE=0.651979 MJE=0.352708
+TF=3.95e-10 XTF=1.35721 VTF=0.995664 ITF=1
+CJC=2.95409e-11 VJC=0.579837 MJC=0.29548 XCJC=0.896875
+FC=0.501042 CJS=0 VJS=0.75 MJS=0.5
+TR=1e-07 PTF=0 KF=0 AF=1
