.SUBCKT sm12t1 1 2 3
X1 3 1 halfsm12t1
X2 3 2 halfsm12t1
.ENDS sm12t1
*
.SUBCKT halfsm12t1 7 1
**************************************
*      Model Generated by MODPEX     *
*Copyright(c) Symmetry Design Systems*
*         All Rights Reserved        *
*    UNPUBLISHED LICENSED SOFTWARE   *
*   Contains Proprietary Information *
*      Which is The Property of      *
*     SYMMETRY OR ITS LICENSORS      *
*Commercial Use or Resale Restricted *
*   by Symmetry License Agreement    *
**************************************
* Model generated on Dec 12, 03
* MODEL FORMAT: PSpice
*     anode cathode
*node: 7      1
*    Forward Section
D1 2 1 MDD1
.MODEL MDD1 D IS=6.81336e-15 N=1 XTI=1 RS=0.5
+ CJO=9.5e-11 TT=1e-08
*    Leakage Current
R 1 2 MDR 1.2e+10
.MODEL MDR RES TC1=0 TC2=0
*    Breakdown
RZ 2 3 4.38079 
D3 4 3 MDD3
.MODEL MDD3 D IS=2.5e-15 N=0.5 
EV1 1 4 6 8 1
IBV 0 6 0.001
RBV 6 0 MDRBV 14530
.MODEL MDRBV RES TC1=0
D4 8 0 MDD3
L 7 2 1e-15
IT 0 8 0.001
.ENDS halfsm12t1
