*$
.SUBCKT SRDA05-4 1 2 3 4 5 6 7 8
***************************************
*       Model Generated by Eval Lab   *
*    Copyright(c) ON Semiconductor    *
*          All Rights Reserved        *
*     UNPUBLISHED LICENSED SOFTWARE   *
*    Contains Proprietary Information *
*                                     *
* Commercial Use or Resale Restricted *
*                                     *
***************************************
* Model generated on Mar 6, 2002
* MODEL FORMAT: PSpice
*     pin1  pin2   pin3   pin4   pin5   pin6   pin7   pin8
*node:  1     2      3      4      5     6       7      8
*
XD1  9  2  SRDA05-4-N
XD2 11  2  SRDA05-4-N
XD3 14  3  SRDA05-4-N
XD4 16  3  SRDA05-4-N
*
XD5  5 17  SRDA05-4-P
XD6  5 15  SRDA05-4-P
XD7  8 12  SRDA05-4-P
XD8  8 10  SRDA05-4-P
*
XDT  8 13  SRDA05-4-T
*
L1   1  9  6.3N
L2   4 16  2.9N
L3   9 10  3.4N
L4  11 12  3.4N
L5   2 13  1.7N
L6  14 15  3.4N
L7  16 17  3.4N
L8   6 15  2.9N
L9   7 12  6.3N
*
R1   2  3  1U
R2   5  8  1U
*
.ENDS SRDA05-4
*$
*
.SUBCKT SRDA05-4-n 2 1
**************************************
*      Model Generated by MODPEX     *
*Copyright(c) Symmetry Design Systems*
*         All Rights Reserved        *
*    UNPUBLISHED LICENSED SOFTWARE   *
*   Contains Proprietary Information *
*      Which is The Property of      *
*     SYMMETRY OR ITS LICENSORS      *
*Commercial Use or Resale Restricted *
*   by Symmetry License Agreement    *
**************************************
* Model generated on Mar  6, 02
* MODEL FORMAT: PSpice
*     anode cathode
*node: 2      1
*    Forward Section
D1 2 1 MD1
.MODEL MD1 D IS=1.70021e-15 N=1 XTI=1 RS=10
+ CJO=1.5e-12 TT=1e-08
*    Leakage Current
R 1 2 MDR 7.2e+09	
.MODEL MDR RES TC1=0 TC2=0
*    Breakdown
RZ 2 3 8.76289
IZG 4 3 1.2
R4 4 3 500
D3 3 4 MD3
.MODEL MD3 D IS=2.5e-12 N=4.09521e-05 XTI=0 EG=0.1
D2 5 4 MD2
.MODEL MD2 D IS=2.5e-12 N=0.000478944 XTI=0 EG=0.1
EV1 1 5 6 0 1
IBV 0 6 0.001
RBV 6 0 MDRBV 470000
.MODEL MDRBV RES TC1=0
*-- SPICE3 DIODE MODEL DEFAULT PARAMETER
*  VALUES ARE ASSUMED
*IS=1E-14 RS=0 N=1 TT=0 CJO=0
*VJ=1 M=0.5 EG=1.11 XTI=3 FC=0.5
*KF=0 AF=1 BV=inf IBV=1e-3 TNOM=27
.ENDS SRDA05-4-n
*$
*
.SUBCKT SRDA05-4-p 2 1
**************************************
*      Model Generated by MODPEX     *
*Copyright(c) Symmetry Design Systems*
*         All Rights Reserved        *
*    UNPUBLISHED LICENSED SOFTWARE   *
*   Contains Proprietary Information *
*      Which is The Property of      *
*     SYMMETRY OR ITS LICENSORS      *
*Commercial Use or Resale Restricted *
*   by Symmetry License Agreement    *
**************************************
* Model generated on Mar  6, 02
* MODEL FORMAT: PSpice
*     anode cathode
*node: 2      1
*    Forward Section
D1 2 1 MD1
.MODEL MD1 D IS=2.06333e-15 N=1 XTI=1 RS=10
+ CJO=2.5e-12 TT=1e-08
*    Leakage Current
R 1 2 MDR 3.6e+10	
.MODEL MDR RES TC1=0 TC2=0
*    Breakdown
RZ 2 3 8.76289
IZG 4 3 1.2
R4 4 3 500
D3 3 4 MD3
.MODEL MD3 D IS=2.5e-12 N=4.09521e-05 XTI=0 EG=0.1
D2 5 4 MD2
.MODEL MD2 D IS=2.5e-12 N=0.000478944 XTI=0 EG=0.1
EV1 1 5 6 0 1
IBV 0 6 0.001
RBV 6 0 MDRBV 425000
.MODEL MDRBV RES TC1=0
*-- SPICE3 DIODE MODEL DEFAULT PARAMETER
*  VALUES ARE ASSUMED
*IS=1E-14 RS=0 N=1 TT=0 CJO=0
*VJ=1 M=0.5 EG=1.11 XTI=3 FC=0.5
*KF=0 AF=1 BV=inf IBV=1e-3 TNOM=27
.ENDS SRDA05-4-p
*$
*
.SUBCKT SRDA05-4-t 7 1
**************************************
*      Model Generated by MODPEX     *
*Copyright(c) Symmetry Design Systems*
*         All Rights Reserved        *
*    UNPUBLISHED LICENSED SOFTWARE   *
*   Contains Proprietary Information *
*      Which is The Property of      *
*     SYMMETRY OR ITS LICENSORS      *
*Commercial Use or Resale Restricted *
*   by Symmetry License Agreement    *
**************************************
* Model generated on Mar  6, 02
* MODEL FORMAT: PSpice
*     anode cathode
*node: 7      1
*    Forward Section
D1 2 1 MDD1
.MODEL MDD1 D IS=1.37284e-15 N=1 XTI=1 RS=0.5
+ CJO=3.4e-10 TT=1e-08
*    Leakage Current
R 1 2 MDR 5e+07
.MODEL MDR RES TC1=0 TC2=0
*    Breakdown
RZ 2 3 0.458105 
D3 4 3 MDD3
.MODEL MDD3 D IS=2.5e-15 N=0.5 
EV1 1 4 6 8 1
IBV 0 6 0.001
RBV 6 0 MDRBV 7300
.MODEL MDRBV RES TC1=0
D4 8 0 MDD3
L 7 2 1e-15
IT 0 8 0.001
.ENDS SRDA05-4-t
*$
