**************************************
*      Model Generated by MODPEX     *
*Copyright(c) Symmetry Design Systems*
*         All Rights Reserved        *
*    UNPUBLISHED LICENSED SOFTWARE   *
*   Contains Proprietary Information *
*      Which is The Property of      *
*     SYMMETRY OR ITS LICENSORS      *
*Commercial Use or Resale Restricted *
*   by Symmetry License Agreement    *
**************************************
* Model generated on Oct 16, 01
* MODEL FORMAT: PSpice
.MODEL Dss26 d
+IS=0.000119966 RS=0.0624233 N=1.7518 EG=0.652121
+XTI=0.5 BV=60 IBV=1e-05 CJO=2.19068e-10
+VJ=0.4 M=0.436049 FC=0.5 TT=0
+KF=0 AF=1

