**************************************
*      Model Generated by MODPEX     *
*Copyright(c) Symmetry Design Systems*
*         All Rights Reserved        *
*    UNPUBLISHED LICENSED SOFTWARE   *
*   Contains Proprietary Information *
*      Which is The Property of      *
*     SYMMETRY OR ITS LICENSORS      *
*    Modeling services provided by   *
* Interface Technologies www.i-t.com *
**************************************
.MODEL Dtra3225 d
+IS=6.21207e-14 RS=0.00199237 N=0.941714 EG=1.3
+XTI=4 BV=250 IBV=2e-05 CJO=5.25667e-10
+VJ=0.644517 M=0.437237 FC=0.5 TT=7.79055e-06
+KF=0 AF=1
* Model generated on October 2, 2003
* Model format: PSpice
