**************************************
*      Model Generated by MODPEX     *
*Copyright(c) Symmetry Design Systems*
*         All Rights Reserved        *
*    UNPUBLISHED LICENSED SOFTWARE   *
*   Contains Proprietary Information *
*      Which is The Property of      *
*     SYMMETRY OR ITS LICENSORS      *
*    Modeling services provided by   *
* Interface Technologies www.i-t.com *
**************************************
.MODEL Dmbrs3100lt3 d
+IS=0.000218691 RS=0.0139624 N=2.73664 EG=0.845343
+XTI=4.78882 BV=100 IBV=5e-05 CJO=4.45302e-10
+VJ=0.4 M=0.480577 FC=0.5 TT=0
+KF=0 AF=1
* Model generated on Dec 1, 2003
* Model format: SPICE2
