**************************************
*      Model Generated by MODPEX     *
*Copyright(c) Symmetry Design Systems*
*         All Rights Reserved        *
*    UNPUBLISHED LICENSED SOFTWARE   *
*   Contains Proprietary Information *
*      Which is The Property of      *
*     SYMMETRY OR ITS LICENSORS      *
*Commercial Use or Resale Restricted *
*   by Symmetry License Agreement    *
**************************************
* Model generated on Aug 12, 03
* MODEL FORMAT: SPICE2
.MODEL Qmjl4302a pnp
+IS=8.52181e-11 BF=505.26 NF=1.14612 VAF=15.6851
+IKF=2.86699 ISE=3.82966e-09 NE=2.09196 BR=50.526
+NR=1.18655 VAR=1.41005 IKR=9.95655 ISC=4.51392e-11
+NC=1.28018 RB=98.7069 IRB=4.30971e-06 RBM=0.110355
+RE=0.00577433 RC=0.0288716 XTB=0.00344757 XTI=0.00948369
+EG=1.05 CJE=1.42406e-08 VJE=0.99 MJE=0.23
+TF=2.22092e-09 XTF=15.6824 VTF=100000 ITF=63.5289
+CJC=5.00002e-10 VJC=0.893622 MJC=2.3e-21 XCJC=1
+FC=0.1 CJS=0 VJS=0.75 MJS=0.5
+TR=1e-07 PTF=0 KF=0 AF=1


