**************************************
*      Model Generated by MODPEX     *
*Copyright(c) Symmetry Design Systems*
*         All Rights Reserved        *
*    UNPUBLISHED LICENSED SOFTWARE   *
*   Contains Proprietary Information *
*      Which is The Property of      *
*     SYMMETRY OR ITS LICENSORS      *
*    Modeling services provided by   *
* Interface Technologies www.i-t.com *
**************************************
.MODEL Dmra4004t3 d
+IS=1.79455e-10 RS=0.0433962 N=1.5068 EG=1.16207
+XTI=0.0005 BV=400 IBV=1e-05 CJO=1.56857e-11
+VJ=0.4 M=0.202713 FC=0.5 TT=1e-09
+KF=0 AF=1
* Model generated on Dec  7, 2003
* Model format: SPICE2
