**************************************
*      Model Generated by MODPEX     *
*Copyright(c) Symmetry Design Systems*
*         All Rights Reserved        *
*    UNPUBLISHED LICENSED SOFTWARE   *
*   Contains Proprietary Information *
*      Which is The Property of      *
*     SYMMETRY OR ITS LICENSORS      *
*    Modeling services provided by   *
* Interface Technologies www.i-t.com *
**************************************
.MODEL Dmur1510 d
+IS=3.22362e-06 RS=0.0101675 N=2 EG=1.21579
+XTI=3.00528 BV=100 IBV=0.00001 CJO=5.43128e-10
+VJ=0.4 M=0.373456 FC=0.5 TT=3.24606e-08
+KF=0 AF=1
* Model generated on August 31, 2003
* Model format: SPICE2
